ZINC13298436
 OpenBabel08292219463D

 59 63  0  0  0  0  0  0  0  0999 V2000
   -0.0187    1.5258    0.0104 C   0  0  0  0  0  0  0  0  0  0  0  0
    0.0021   -0.0041    0.0020 C   0  0  0  0  0  0  0  0  0  0  0  0
    0.7182   -0.4975   -1.2568 C   0  0  0  0  0  0  0  0  0  0  0  0
    0.7390   -2.0273   -1.2652 C   0  0  0  0  0  0  0  0  0  0  0  0
    1.4443   -2.5133   -2.5051 C   0  0  0  0  0  0  0  0  0  0  0  0
    1.9446   -1.7244   -3.3941 N   0  0  0  0  0  0  0  0  0  0  0  0
    2.5387   -2.5645   -4.4341 C   0  0  0  0  0  0  0  0  0  0  0  0
    1.8838   -2.3055   -5.7977 C   0  0  0  0  0  0  0  0  0  0  0  0
    2.8711   -1.3460   -6.5115 C   0  0  0  0  0  0  0  0  0  0  0  0
    4.2550   -1.8748   -6.0570 C   0  0  0  0  0  0  0  0  0  0  0  0
    4.0372   -2.2917   -4.5855 C   0  0  0  0  0  0  0  0  0  0  0  0
    2.2851   -3.9781   -3.9734 C   0  0  0  0  0  0  0  0  0  0  0  0
    2.6050   -5.0082   -4.5272 O   0  0  0  0  0  0  0  0  0  0  0  0
    1.6252   -3.8381   -2.8007 N   0  0  0  0  0  0  0  0  0  0  0  0
    1.1649   -4.9497   -1.9648 C   0  0  0  0  0  0  0  0  0  0  0  0
   -0.2301   -5.3438   -2.3767 C   0  0  0  0  0  0  0  0  0  0  0  0
   -1.3216   -4.7387   -1.7799 C   0  0  0  0  0  0  0  0  0  0  0  0
   -2.6014   -5.0955   -2.1530 C   0  0  0  0  0  0  0  0  0  0  0  0
   -2.7931   -6.0679   -3.1335 C   0  0  0  0  0  0  0  0  0  0  0  0
   -1.6892   -6.6744   -3.7314 C   0  0  0  0  0  0  0  0  0  0  0  0
   -0.4142   -6.3053   -3.3541 C   0  0  0  0  0  0  0  0  0  0  0  0
   -4.1651   -6.4559   -3.5382 C   0  0  0  0  0  0  0  0  0  0  0  0
   -5.1143   -6.7811   -2.5730 C   0  0  0  0  0  0  0  0  0  0  0  0
   -6.3909   -7.1419   -2.9542 C   0  0  0  0  0  0  0  0  0  0  0  0
   -6.7368   -7.1832   -4.2946 C   0  0  0  0  0  0  0  0  0  0  0  0
   -5.8093   -6.8642   -5.2650 C   0  0  0  0  0  0  0  0  0  0  0  0
   -4.5171   -6.4920   -4.8980 C   0  0  0  0  0  0  0  0  0  0  0  0
   -3.5210   -6.1438   -5.9336 C   0  0  0  0  0  0  0  0  0  0  0  0
   -2.2520   -5.7828   -5.7320 N   0  0  0  0  0  2  0  0  0  0  0  0
   -1.7232   -5.5650   -6.8873 N   0  0  0  0  0  0  0  0  0  0  0  0
   -2.6028   -5.7729   -7.8034 N   0  0  0  0  0  0  0  0  0  0  0  0
   -3.7120   -6.1340   -7.2544 N   0  0  0  0  0  0  0  0  0  0  0  0
    1.0039    1.9031    0.0027 H   0  0  0  0  0  0  0  0  0  0  0  0
   -0.5459    1.8868   -0.8726 H   0  0  0  0  0  0  0  0  0  0  0  0
   -0.5289    1.8773    0.9072 H   0  0  0  0  0  0  0  0  0  0  0  0
    0.5293   -0.3651    0.8851 H   0  0  0  0  0  0  0  0  0  0  0  0
   -1.0205   -0.3814    0.0098 H   0  0  0  0  0  0  0  0  0  0  0  0
    0.1910   -0.1364   -2.1398 H   0  0  0  0  0  0  0  0  0  0  0  0
    1.7408   -0.1202   -1.2645 H   0  0  0  0  0  0  0  0  0  0  0  0
    1.2661   -2.3884   -0.3821 H   0  0  0  0  0  0  0  0  0  0  0  0
   -0.2836   -2.4046   -1.2575 H   0  0  0  0  0  0  0  0  0  0  0  0
    1.7838   -3.2360   -6.3566 H   0  0  0  0  0  0  0  0  0  0  0  0
    0.9120   -1.8286   -5.6706 H   0  0  0  0  0  0  0  0  0  0  0  0
    2.7663   -1.4197   -7.5940 H   0  0  0  0  0  0  0  0  0  0  0  0
    2.7214   -0.3194   -6.1772 H   0  0  0  0  0  0  0  0  0  0  0  0
    4.5506   -2.7352   -6.6575 H   0  0  0  0  0  0  0  0  0  0  0  0
    5.0050   -1.0867   -6.1232 H   0  0  0  0  0  0  0  0  0  0  0  0
    4.3401   -1.4844   -3.9188 H   0  0  0  0  0  0  0  0  0  0  0  0
    4.6064   -3.1945   -4.3639 H   0  0  0  0  0  0  0  0  0  0  0  0
    1.8348   -5.8003   -2.0903 H   0  0  0  0  0  0  0  0  0  0  0  0
    1.1615   -4.6410   -0.9194 H   0  0  0  0  0  0  0  0  0  0  0  0
   -1.1718   -3.9857   -1.0203 H   0  0  0  0  0  0  0  0  0  0  0  0
   -3.4527   -4.6226   -1.6862 H   0  0  0  0  0  0  0  0  0  0  0  0
   -1.8317   -7.4283   -4.4914 H   0  0  0  0  0  0  0  0  0  0  0  0
    0.4417   -6.7712   -3.8197 H   0  0  0  0  0  0  0  0  0  0  0  0
   -4.8516   -6.7514   -1.5259 H   0  0  0  0  0  0  0  0  0  0  0  0
   -7.1244   -7.3938   -2.2027 H   0  0  0  0  0  0  0  0  0  0  0  0
   -7.7384   -7.4672   -4.5820 H   0  0  0  0  0  0  0  0  0  0  0  0
   -6.0856   -6.8988   -6.3085 H   0  0  0  0  0  0  0  0  0  0  0  0
  1  2  1  0  0  0  0
  1 33  1  0  0  0  0
  1 34  1  0  0  0  0
  1 35  1  0  0  0  0
  2  3  1  0  0  0  0
  2 36  1  0  0  0  0
  2 37  1  0  0  0  0
  3  4  1  0  0  0  0
  3 38  1  0  0  0  0
  3 39  1  0  0  0  0
  4  5  1  0  0  0  0
  4 40  1  0  0  0  0
  4 41  1  0  0  0  0
  5 14  1  0  0  0  0
  5  6  2  0  0  0  0
  6  7  1  0  0  0  0
  7 11  1  0  0  0  0
  7  8  1  0  0  0  0
  7 12  1  0  0  0  0
  8  9  1  0  0  0  0
  8 42  1  0  0  0  0
  8 43  1  0  0  0  0
  9 10  1  0  0  0  0
  9 44  1  0  0  0  0
  9 45  1  0  0  0  0
 10 11  1  0  0  0  0
 10 46  1  0  0  0  0
 10 47  1  0  0  0  0
 11 48  1  0  0  0  0
 11 49  1  0  0  0  0
 12 13  2  0  0  0  0
 12 14  1  0  0  0  0
 14 15  1  0  0  0  0
 15 16  1  0  0  0  0
 15 50  1  0  0  0  0
 15 51  1  0  0  0  0
 16 21  2  0  0  0  0
 16 17  1  0  0  0  0
 17 18  2  0  0  0  0
 17 52  1  0  0  0  0
 18 19  1  0  0  0  0
 18 53  1  0  0  0  0
 19 20  2  0  0  0  0
 19 22  1  0  0  0  0
 20 21  1  0  0  0  0
 20 54  1  0  0  0  0
 21 55  1  0  0  0  0
 22 27  2  0  0  0  0
 22 23  1  0  0  0  0
 23 24  2  0  0  0  0
 23 56  1  0  0  0  0
 24 25  1  0  0  0  0
 24 57  1  0  0  0  0
 25 26  2  0  0  0  0
 25 58  1  0  0  0  0
 26 27  1  0  0  0  0
 26 59  1  0  0  0  0
 27 28  1  0  0  0  0
 28 32  2  0  0  0  0
 28 29  1  0  0  0  0
 29 30  1  0  0  0  0
 30 31  2  0  0  0  0
 31 32  1  0  0  0  0
M  END
$$$$
