ZINC03830276
 OpenBabel08292219463D

 95 95  0  0  0  0  0  0  0  0999 V2000
   -0.0187    1.5258    0.0104 C   0  0  0  0  0  0  0  0  0  0  0  0
    0.0021   -0.0041    0.0020 C   0  0  0  0  0  0  0  0  0  0  0  0
    0.7182   -0.4975   -1.2568 C   0  0  0  0  0  0  0  0  0  0  0  0
    0.7390   -2.0273   -1.2652 C   0  0  0  0  0  0  0  0  0  0  0  0
    1.4247   -2.4998   -2.4705 N   0  0  0  0  0  0  0  0  0  0  0  0
    1.5681   -3.8634   -2.6992 C   0  0  0  0  0  0  0  0  0  0  0  0
    1.0544   -4.7790   -1.7845 C   0  0  0  0  0  0  0  0  0  0  0  0
    1.1937   -6.1246   -2.0073 C   0  0  0  0  0  0  0  0  0  0  0  0
    1.8527   -6.5773   -3.1548 C   0  0  0  0  0  0  0  0  0  0  0  0
    2.3675   -5.6550   -4.0715 C   0  0  0  0  0  0  0  0  0  0  0  0
    2.2201   -4.3108   -3.8453 C   0  0  0  0  0  0  0  0  0  0  0  0
    2.0048   -8.0231   -3.3972 C   0  0  0  0  0  0  0  0  0  0  0  0
    1.5573   -8.8233   -2.5997 O   0  0  0  0  0  0  0  0  0  0  0  0
    2.6401   -8.4576   -4.5034 O   0  0  0  0  0  0  0  0  0  0  0  0
    2.7510   -9.8720   -4.6744 C   0  0  0  0  0  0  0  0  0  0  0  0
    3.4967  -10.1714   -5.9764 C   0  0  0  0  0  0  0  0  0  0  0  0
    4.8406   -9.6962   -5.8757 O   0  0  0  0  0  0  0  0  0  0  0  0
    5.6280   -9.9273   -7.0456 C   0  0  0  0  0  0  0  0  0  0  0  0
    7.0402   -9.3808   -6.8261 C   0  0  0  0  0  0  0  0  0  0  0  0
    7.6815  -10.1221   -5.7862 O   0  0  0  0  0  0  0  0  0  0  0  0
    9.0131   -9.6896   -5.5004 C   0  0  0  0  0  0  0  0  0  0  0  0
    9.5985  -10.5486   -4.3778 C   0  0  0  0  0  0  0  0  0  0  0  0
    9.7280  -11.8983   -4.8290 O   0  0  0  0  0  0  0  0  0  0  0  0
   10.2687  -12.7888   -3.8509 C   0  0  0  0  0  0  0  0  0  0  0  0
   10.3617  -14.1978   -4.4400 C   0  0  0  0  0  0  0  0  0  0  0  0
   11.3016  -14.2029   -5.5164 O   0  0  0  0  0  0  0  0  0  0  0  0
   11.4645  -15.4785   -6.1397 C   0  0  0  0  0  0  0  0  0  0  0  0
   12.4880  -15.3661   -7.2714 C   0  0  0  0  0  0  0  0  0  0  0  0
   13.7690  -15.0459   -6.7251 O   0  0  0  0  0  0  0  0  0  0  0  0
   14.8025  -14.9174   -7.7036 C   0  0  0  0  0  0  0  0  0  0  0  0
   16.1224  -14.5754   -7.0094 C   0  0  0  0  0  0  0  0  0  0  0  0
   16.5212  -15.6683   -6.1795 O   0  0  0  0  0  0  0  0  0  0  0  0
   17.7491  -15.4503   -5.4818 C   0  0  0  0  0  0  0  0  0  0  0  0
   18.0762  -16.6781   -4.6294 C   0  0  0  0  0  0  0  0  0  0  0  0
   18.3196  -17.7988   -5.4820 O   0  0  0  0  0  0  0  0  0  0  0  0
   18.6360  -19.0037   -4.7820 C   0  0  0  0  0  0  0  0  0  0  0  0
   18.8757  -20.1305   -5.7889 C   0  0  0  0  0  0  0  0  0  0  0  0
   20.0340  -19.8323   -6.5707 O   0  0  0  0  0  0  0  0  0  0  0  0
   20.3480  -20.8270   -7.5474 C   0  0  0  0  0  0  0  0  0  0  0  0
   21.5989  -20.4054   -8.3210 C   0  0  0  0  0  0  0  0  0  0  0  0
   22.7200  -20.3781   -7.4353 O   0  0  0  0  0  0  0  0  0  0  0  0
   23.9459  -19.9942   -8.0612 C   0  0  0  0  0  0  0  0  0  0  0  0
    1.0039    1.9031    0.0027 H   0  0  0  0  0  0  0  0  0  0  0  0
   -0.5459    1.8868   -0.8726 H   0  0  0  0  0  0  0  0  0  0  0  0
   -0.5289    1.8773    0.9072 H   0  0  0  0  0  0  0  0  0  0  0  0
    0.5293   -0.3651    0.8851 H   0  0  0  0  0  0  0  0  0  0  0  0
   -1.0205   -0.3814    0.0098 H   0  0  0  0  0  0  0  0  0  0  0  0
    0.1910   -0.1364   -2.1398 H   0  0  0  0  0  0  0  0  0  0  0  0
    1.7408   -0.1202   -1.2645 H   0  0  0  0  0  0  0  0  0  0  0  0
    1.2661   -2.3884   -0.3821 H   0  0  0  0  0  0  0  0  0  0  0  0
   -0.2836   -2.4046   -1.2575 H   0  0  0  0  0  0  0  0  0  0  0  0
    1.7786   -1.8611   -3.1090 H   0  0  0  0  0  0  0  0  0  0  0  0
    0.5459   -4.4287   -0.8984 H   0  0  0  0  0  0  0  0  0  0  0  0
    0.7953   -6.8342   -1.2972 H   0  0  0  0  0  0  0  0  0  0  0  0
    2.8769   -6.0013   -4.9586 H   0  0  0  0  0  0  0  0  0  0  0  0
    2.6138   -3.5980   -4.5548 H   0  0  0  0  0  0  0  0  0  0  0  0
    3.3007  -10.2975   -3.8348 H   0  0  0  0  0  0  0  0  0  0  0  0
    1.7547  -10.3122   -4.7169 H   0  0  0  0  0  0  0  0  0  0  0  0
    3.5039  -11.2472   -6.1519 H   0  0  0  0  0  0  0  0  0  0  0  0
    2.9957   -9.6714   -6.8053 H   0  0  0  0  0  0  0  0  0  0  0  0
    5.6795  -10.9980   -7.2432 H   0  0  0  0  0  0  0  0  0  0  0  0
    5.1712   -9.4223   -7.8967 H   0  0  0  0  0  0  0  0  0  0  0  0
    7.6142   -9.4767   -7.7477 H   0  0  0  0  0  0  0  0  0  0  0  0
    6.9830   -8.3303   -6.5412 H   0  0  0  0  0  0  0  0  0  0  0  0
    9.6281   -9.7918   -6.3946 H   0  0  0  0  0  0  0  0  0  0  0  0
    8.9969   -8.6454   -5.1881 H   0  0  0  0  0  0  0  0  0  0  0  0
   10.5792  -10.1631   -4.0990 H   0  0  0  0  0  0  0  0  0  0  0  0
    8.9361  -10.5167   -3.5128 H   0  0  0  0  0  0  0  0  0  0  0  0
   11.2632  -12.4498   -3.5611 H   0  0  0  0  0  0  0  0  0  0  0  0
    9.6202  -12.8034   -2.9749 H   0  0  0  0  0  0  0  0  0  0  0  0
   10.6899  -14.8935   -3.6677 H   0  0  0  0  0  0  0  0  0  0  0  0
    9.3829  -14.5020   -4.8108 H   0  0  0  0  0  0  0  0  0  0  0  0
   11.8156  -16.2008   -5.4027 H   0  0  0  0  0  0  0  0  0  0  0  0
   10.5086  -15.8092   -6.5458 H   0  0  0  0  0  0  0  0  0  0  0  0
   12.5469  -16.3156   -7.8035 H   0  0  0  0  0  0  0  0  0  0  0  0
   12.1810  -14.5809   -7.9622 H   0  0  0  0  0  0  0  0  0  0  0  0
   14.9095  -15.8575   -8.2447 H   0  0  0  0  0  0  0  0  0  0  0  0
   14.5435  -14.1228   -8.4034 H   0  0  0  0  0  0  0  0  0  0  0  0
   16.8905  -14.3902   -7.7602 H   0  0  0  0  0  0  0  0  0  0  0  0
   15.9904  -13.6835   -6.3969 H   0  0  0  0  0  0  0  0  0  0  0  0
   18.5510  -15.2832   -6.2010 H   0  0  0  0  0  0  0  0  0  0  0  0
   17.6508  -14.5765   -4.8376 H   0  0  0  0  0  0  0  0  0  0  0  0
   18.9642  -16.4780   -4.0298 H   0  0  0  0  0  0  0  0  0  0  0  0
   17.2355  -16.8980   -3.9714 H   0  0  0  0  0  0  0  0  0  0  0  0
   19.5356  -18.8519   -4.1856 H   0  0  0  0  0  0  0  0  0  0  0  0
   17.8069  -19.2719   -4.1271 H   0  0  0  0  0  0  0  0  0  0  0  0
   19.0293  -21.0683   -5.2549 H   0  0  0  0  0  0  0  0  0  0  0  0
   18.0093  -20.2230   -6.4437 H   0  0  0  0  0  0  0  0  0  0  0  0
   20.5322  -21.7792   -7.0500 H   0  0  0  0  0  0  0  0  0  0  0  0
   19.5121  -20.9340   -8.2388 H   0  0  0  0  0  0  0  0  0  0  0  0
   21.7872  -21.1184   -9.1236 H   0  0  0  0  0  0  0  0  0  0  0  0
   21.4465  -19.4128   -8.7449 H   0  0  0  0  0  0  0  0  0  0  0  0
   24.1830  -20.6987   -8.8585 H   0  0  0  0  0  0  0  0  0  0  0  0
   23.8423  -18.9931   -8.4798 H   0  0  0  0  0  0  0  0  0  0  0  0
   24.7476  -19.9980   -7.3227 H   0  0  0  0  0  0  0  0  0  0  0  0
  1  2  1  0  0  0  0
  1 43  1  0  0  0  0
  1 44  1  0  0  0  0
  1 45  1  0  0  0  0
  2  3  1  0  0  0  0
  2 46  1  0  0  0  0
  2 47  1  0  0  0  0
  3  4  1  0  0  0  0
  3 48  1  0  0  0  0
  3 49  1  0  0  0  0
  4  5  1  0  0  0  0
  4 50  1  0  0  0  0
  4 51  1  0  0  0  0
  5  6  1  0  0  0  0
  5 52  1  0  0  0  0
  6 11  2  0  0  0  0
  6  7  1  0  0  0  0
  7  8  2  0  0  0  0
  7 53  1  0  0  0  0
  8  9  1  0  0  0  0
  8 54  1  0  0  0  0
  9 10  2  0  0  0  0
  9 12  1  0  0  0  0
 10 11  1  0  0  0  0
 10 55  1  0  0  0  0
 11 56  1  0  0  0  0
 12 13  2  0  0  0  0
 12 14  1  0  0  0  0
 14 15  1  0  0  0  0
 15 16  1  0  0  0  0
 15 57  1  0  0  0  0
 15 58  1  0  0  0  0
 16 17  1  0  0  0  0
 16 59  1  0  0  0  0
 16 60  1  0  0  0  0
 17 18  1  0  0  0  0
 18 19  1  0  0  0  0
 18 61  1  0  0  0  0
 18 62  1  0  0  0  0
 19 20  1  0  0  0  0
 19 63  1  0  0  0  0
 19 64  1  0  0  0  0
 20 21  1  0  0  0  0
 21 22  1  0  0  0  0
 21 65  1  0  0  0  0
 21 66  1  0  0  0  0
 22 23  1  0  0  0  0
 22 67  1  0  0  0  0
 22 68  1  0  0  0  0
 23 24  1  0  0  0  0
 24 25  1  0  0  0  0
 24 69  1  0  0  0  0
 24 70  1  0  0  0  0
 25 26  1  0  0  0  0
 25 71  1  0  0  0  0
 25 72  1  0  0  0  0
 26 27  1  0  0  0  0
 27 28  1  0  0  0  0
 27 73  1  0  0  0  0
 27 74  1  0  0  0  0
 28 29  1  0  0  0  0
 28 75  1  0  0  0  0
 28 76  1  0  0  0  0
 29 30  1  0  0  0  0
 30 31  1  0  0  0  0
 30 77  1  0  0  0  0
 30 78  1  0  0  0  0
 31 32  1  0  0  0  0
 31 79  1  0  0  0  0
 31 80  1  0  0  0  0
 32 33  1  0  0  0  0
 33 34  1  0  0  0  0
 33 81  1  0  0  0  0
 33 82  1  0  0  0  0
 34 35  1  0  0  0  0
 34 83  1  0  0  0  0
 34 84  1  0  0  0  0
 35 36  1  0  0  0  0
 36 37  1  0  0  0  0
 36 85  1  0  0  0  0
 36 86  1  0  0  0  0
 37 38  1  0  0  0  0
 37 87  1  0  0  0  0
 37 88  1  0  0  0  0
 38 39  1  0  0  0  0
 39 40  1  0  0  0  0
 39 89  1  0  0  0  0
 39 90  1  0  0  0  0
 40 41  1  0  0  0  0
 40 91  1  0  0  0  0
 40 92  1  0  0  0  0
 41 42  1  0  0  0  0
 42 93  1  0  0  0  0
 42 94  1  0  0  0  0
 42 95  1  0  0  0  0
M  END
$$$$
