ZINC00056653
 OpenBabel08292219463D

 33 33  0  0  1  0  0  0  0  0999 V2000
   -0.0187    1.5258    0.0104 C   0  0  0  0  0  0  0  0  0  0  0  0
    0.0021   -0.0041    0.0020 C   0  0  0  0  0  0  0  0  0  0  0  0
    0.7182   -0.4975   -1.2568 C   0  0  0  0  0  0  0  0  0  0  0  0
    0.7126   -0.4907    1.1921 N   0  3  0  0  0  0  0  0  0  0  0  0
   -0.0398   -0.1189    2.3978 C   0  0  0  0  0  0  0  0  0  0  0  0
    0.7001   -0.6257    3.6373 C   0  0  2  0  0  0  0  0  0  0  0  0
    0.8710   -1.6983    3.5452 H   0  0  0  0  0  0  0  0  0  0  0  0
   -0.1305   -0.3530    4.8648 C   0  0  0  0  0  0  0  0  0  0  0  0
   -0.1412    0.9117    5.4233 C   0  0  0  0  0  0  0  0  0  0  0  0
   -0.9016    1.1669    6.5493 C   0  0  0  0  0  0  0  0  0  0  0  0
   -1.6555    0.1542    7.1203 C   0  0  0  0  0  0  0  0  0  0  0  0
   -1.6451   -1.1185    6.5578 C   0  0  0  0  0  0  0  0  0  0  0  0
   -0.8845   -1.3664    5.4264 C   0  0  0  0  0  0  0  0  0  0  0  0
   -2.3834   -2.1157    7.1146 O   0  0  0  0  0  0  0  0  0  0  0  0
   -2.4037    0.4035    8.2282 O   0  0  0  0  0  0  0  0  0  0  0  0
    1.9549    0.0485    3.7518 O   0  0  0  0  0  0  0  0  0  0  0  0
    1.0039    1.9031    0.0027 H   0  0  0  0  0  0  0  0  0  0  0  0
   -0.5459    1.8868   -0.8726 H   0  0  0  0  0  0  0  0  0  0  0  0
   -0.5289    1.8773    0.9072 H   0  0  0  0  0  0  0  0  0  0  0  0
   -1.0205   -0.3814    0.0098 H   0  0  0  0  0  0  0  0  0  0  0  0
    1.7408   -0.1202   -1.2645 H   0  0  0  0  0  0  0  0  0  0  0  0
    0.7330   -1.5874   -1.2628 H   0  0  0  0  0  0  0  0  0  0  0  0
    0.1910   -0.1364   -2.1398 H   0  0  0  0  0  0  0  0  0  0  0  0
    0.7982   -1.4950    1.1455 H   0  0  0  0  0  0  0  0  0  0  0  0
   -0.1324    0.9660    2.4481 H   0  0  0  0  0  0  0  0  0  0  0  0
   -1.0328   -0.5668    2.3589 H   0  0  0  0  0  0  0  0  0  0  0  0
    0.4460    1.7018    4.9792 H   0  0  0  0  0  0  0  0  0  0  0  0
   -0.9077    2.1555    6.9841 H   0  0  0  0  0  0  0  0  0  0  0  0
   -0.8776   -2.3524    4.9857 H   0  0  0  0  0  0  0  0  0  0  0  0
   -3.2817   -2.1833    6.7632 H   0  0  0  0  0  0  0  0  0  0  0  0
   -3.3050    0.6967    8.0364 H   0  0  0  0  0  0  0  0  0  0  0  0
    1.8791    1.0087    3.8375 H   0  0  0  0  0  0  0  0  0  0  0  0
    1.6317   -0.0761    1.2281 H   0  0  0  0  0  0  0  0  0  0  0  0
  1  2  1  0  0  0  0
  1 17  1  0  0  0  0
  1 18  1  0  0  0  0
  1 19  1  0  0  0  0
  2  3  1  0  0  0  0
  2  4  1  0  0  0  0
  2 20  1  0  0  0  0
  3 21  1  0  0  0  0
  3 22  1  0  0  0  0
  3 23  1  0  0  0  0
  4  5  1  0  0  0  0
  4 24  1  0  0  0  0
  4 33  1  0  0  0  0
  5  6  1  0  0  0  0
  5 25  1  0  0  0  0
  5 26  1  0  0  0  0
  6  7  1  6  0  0  0
  6  8  1  0  0  0  0
  6 16  1  0  0  0  0
  8 13  2  0  0  0  0
  8  9  1  0  0  0  0
  9 10  2  0  0  0  0
  9 27  1  0  0  0  0
 10 11  1  0  0  0  0
 10 28  1  0  0  0  0
 11 12  2  0  0  0  0
 11 15  1  0  0  0  0
 12 13  1  0  0  0  0
 12 14  1  0  0  0  0
 13 29  1  0  0  0  0
 14 30  1  0  0  0  0
 15 31  1  0  0  0  0
 16 32  1  0  0  0  0
M  CHG  1   4   1
M  END
$$$$
