ZINC03784384
 OpenBabel08292219463D

 60 62  0  0  1  0  0  0  0  0999 V2000
   -8.7386   -1.5665    7.4251 C   0  0  0  0  0  0  0  0  0  0  0  0
   -8.3622   -0.1410    7.8339 C   0  0  0  0  0  0  0  0  0  0  0  0
   -7.2709    0.3125    7.0306 O   0  0  0  0  0  0  0  0  0  0  0  0
   -6.8115    1.5668    7.2672 C   0  0  0  0  0  0  0  0  0  0  0  0
   -7.3947    2.3472    8.2500 C   0  0  0  0  0  0  0  0  0  0  0  0
   -6.9192    3.6308    8.4877 C   0  0  0  0  0  0  0  0  0  0  0  0
   -5.8568    4.1354    7.7397 C   0  0  0  0  0  0  0  0  0  0  0  0
   -5.2708    3.3720    6.7721 C   0  0  0  0  0  0  0  0  0  0  0  0
   -5.7418    2.0797    6.5167 C   0  0  0  0  0  0  0  0  0  0  0  0
   -5.1139    1.2583    5.4686 C   0  0  0  0  0  0  0  0  0  0  0  0
   -5.5218    0.1331    5.2518 O   0  0  0  0  0  0  0  0  0  0  0  0
   -4.0870    1.7530    4.7495 N   0  0  0  0  0  0  0  0  0  0  0  0
   -3.4622    0.9356    3.7066 C   0  0  2  0  0  0  0  0  0  0  0  0
   -2.0216    1.4042    3.4837 C   0  0  0  0  0  0  0  0  0  0  0  0
   -1.3935    0.5864    2.3528 C   0  0  0  0  0  0  0  0  0  0  0  0
   -3.5541    0.2752    1.3005 C   0  0  0  0  0  0  0  0  0  0  0  0
   -4.2466    1.0836    2.4000 C   0  0  0  0  0  0  0  0  0  0  0  0
   -1.5295    0.1029   -0.0154 C   0  0  0  0  0  0  0  0  0  0  0  0
   -2.4212    0.2269   -1.2525 C   0  0  1  0  0  0  0  0  0  0  0  0
   -3.3934   -0.2224   -1.0498 H   0  0  0  0  0  0  0  0  0  0  0  0
   -2.6020    1.7072   -1.6116 C   0  0  0  0  0  0  0  0  0  0  0  0
   -3.6353    1.8098   -2.7356 C   0  0  0  0  0  0  0  0  0  0  0  0
   -3.2948    0.8522   -3.8398 C   0  0  0  0  0  0  0  0  0  0  0  0
   -2.4823   -0.1468   -3.7085 C   0  0  0  0  0  0  0  0  0  0  0  0
   -1.7594   -0.4812   -2.4367 C   0  0  0  0  0  0  0  0  0  0  0  0
   -5.3575    5.5042    8.0006 N   0  0  0  0  0  4  0  0  0  0  0  0
   -6.1410    6.3978    8.2673 O   0  0  0  0  0  0  0  0  0  0  0  0
   -4.1630    5.7370    7.9484 O   0  5  0  0  0  0  0  0  0  0  0  0
   -7.5056    4.4152    9.4751 N   0  0  0  0  0  0  0  0  0  0  0  0
   -9.5710   -1.9124    8.0378 H   0  0  0  0  0  0  0  0  0  0  0  0
   -9.0310   -1.5781    6.3751 H   0  0  0  0  0  0  0  0  0  0  0  0
   -7.8820   -2.2245    7.5710 H   0  0  0  0  0  0  0  0  0  0  0  0
   -8.0698   -0.1294    8.8839 H   0  0  0  0  0  0  0  0  0  0  0  0
   -9.2188    0.5170    7.6880 H   0  0  0  0  0  0  0  0  0  0  0  0
   -8.2183    1.9593    8.8311 H   0  0  0  0  0  0  0  0  0  0  0  0
   -4.4449    3.7677    6.1997 H   0  0  0  0  0  0  0  0  0  0  0  0
   -3.7617    2.6503    4.9224 H   0  0  0  0  0  0  0  0  0  0  0  0
   -3.4616   -0.1099    4.0147 H   0  0  0  0  0  0  0  0  0  0  0  0
   -1.4467    1.2613    4.3987 H   0  0  0  0  0  0  0  0  0  0  0  0
   -2.0194    2.4602    3.2137 H   0  0  0  0  0  0  0  0  0  0  0  0
   -1.3828   -0.4678    2.6296 H   0  0  0  0  0  0  0  0  0  0  0  0
   -0.3725    0.9274    2.1820 H   0  0  0  0  0  0  0  0  0  0  0  0
   -4.1022    0.3899    0.3653 H   0  0  0  0  0  0  0  0  0  0  0  0
   -3.5333   -0.7776    1.5822 H   0  0  0  0  0  0  0  0  0  0  0  0
   -5.2615    0.7117    2.5407 H   0  0  0  0  0  0  0  0  0  0  0  0
   -4.2807    2.1346    2.1130 H   0  0  0  0  0  0  0  0  0  0  0  0
   -1.3723   -0.9507    0.2151 H   0  0  0  0  0  0  0  0  0  0  0  0
   -0.5688    0.5794   -0.2108 H   0  0  0  0  0  0  0  0  0  0  0  0
   -2.9549    2.2556   -0.7383 H   0  0  0  0  0  0  0  0  0  0  0  0
   -1.6516    2.1211   -1.9487 H   0  0  0  0  0  0  0  0  0  0  0  0
   -4.6229    1.5703   -2.3414 H   0  0  0  0  0  0  0  0  0  0  0  0
   -3.6404    2.8259   -3.1300 H   0  0  0  0  0  0  0  0  0  0  0  0
   -3.7567    1.0060   -4.8038 H   0  0  0  0  0  0  0  0  0  0  0  0
   -2.3138   -0.7788   -4.5679 H   0  0  0  0  0  0  0  0  0  0  0  0
   -0.7211   -0.1590   -2.5158 H   0  0  0  0  0  0  0  0  0  0  0  0
   -1.7899   -1.5589   -2.2763 H   0  0  0  0  0  0  0  0  0  0  0  0
   -8.2021    4.0442   10.0392 H   0  0  0  0  0  0  0  0  0  0  0  0
   -7.2182    5.3332    9.5996 H   0  0  0  0  0  0  0  0  0  0  0  0
   -2.1808    0.7912    1.1182 N   0  3  2  0  0  0  0  0  0  0  0  0
   -2.2271    1.7967    0.9156 H   0  0  0  0  0  0  0  0  0  0  0  0
  1  2  1  0  0  0  0
  1 30  1  0  0  0  0
  1 31  1  0  0  0  0
  1 32  1  0  0  0  0
  2  3  1  0  0  0  0
  2 33  1  0  0  0  0
  2 34  1  0  0  0  0
  3  4  1  0  0  0  0
  4  9  2  0  0  0  0
  4  5  1  0  0  0  0
  5  6  2  0  0  0  0
  5 35  1  0  0  0  0
  6  7  1  0  0  0  0
  6 29  1  0  0  0  0
  7  8  2  0  0  0  0
  7 26  1  0  0  0  0
  8  9  1  0  0  0  0
  8 36  1  0  0  0  0
  9 10  1  0  0  0  0
 10 11  2  0  0  0  0
 10 12  1  0  0  0  0
 12 13  1  0  0  0  0
 12 37  1  0  0  0  0
 13 17  1  0  0  0  0
 13 14  1  0  0  0  0
 13 38  1  1  0  0  0
 14 15  1  0  0  0  0
 14 39  1  0  0  0  0
 14 40  1  0  0  0  0
 15 41  1  0  0  0  0
 15 42  1  0  0  0  0
 15 59  1  0  0  0  0
 16 17  1  0  0  0  0
 16 43  1  0  0  0  0
 16 44  1  0  0  0  0
 16 59  1  0  0  0  0
 17 45  1  0  0  0  0
 17 46  1  0  0  0  0
 18 19  1  0  0  0  0
 18 47  1  0  0  0  0
 18 48  1  0  0  0  0
 18 59  1  0  0  0  0
 19 20  1  1  0  0  0
 19 25  1  0  0  0  0
 19 21  1  0  0  0  0
 21 22  1  0  0  0  0
 21 49  1  0  0  0  0
 21 50  1  0  0  0  0
 22 23  1  0  0  0  0
 22 51  1  0  0  0  0
 22 52  1  0  0  0  0
 23 24  2  0  0  0  0
 23 53  1  0  0  0  0
 24 25  1  0  0  0  0
 24 54  1  0  0  0  0
 25 55  1  0  0  0  0
 25 56  1  0  0  0  0
 26 27  2  0  0  0  0
 26 28  1  0  0  0  0
 29 57  1  0  0  0  0
 29 58  1  0  0  0  0
 59 60  1  6  0  0  0
M  CHG  2  28  -1  59   1
M  END
$$$$
