ZINC00004009
 OpenBabel08292219463D

 34 36  0  0  1  0  0  0  0  0999 V2000
   -0.2191    1.3660   -0.2041 C   0  0  0  0  0  0  0  0  0  0  0  0
    0.9845    2.0428   -0.2678 C   0  0  0  0  0  0  0  0  0  0  0  0
    2.1752    1.3460   -0.1884 C   0  0  0  0  0  0  0  0  0  0  0  0
    2.1639   -0.0315   -0.0453 C   0  0  0  0  0  0  0  0  0  0  0  0
    0.9595   -0.7101    0.0186 C   0  0  0  0  0  0  0  0  0  0  0  0
   -0.2328   -0.0110   -0.0606 C   0  0  0  0  0  0  0  0  0  0  0  0
   -1.4093   -0.6722    0.0021 F   0  0  0  0  0  0  0  0  0  0  0  0
    3.3282   -0.7125    0.0314 F   0  0  0  0  0  0  0  0  0  0  0  0
    3.4866    2.0853   -0.2580 C   0  0  1  0  0  0  0  0  0  0  0  0
    4.2787    1.8410    1.0280 C   0  0  0  0  0  0  0  0  0  0  0  0
    3.4555    2.2025    2.1846 N   0  0  0  0  0  0  0  0  0  0  0  0
    3.1192    1.4066    3.2145 C   0  0  0  0  0  0  0  0  0  0  0  0
    2.3782    2.1011    4.0392 N   0  0  0  0  0  0  0  0  0  0  0  0
    2.2203    3.3389    3.5720 C   0  0  0  0  0  0  0  0  0  0  0  0
    2.8659    3.4511    2.4409 N   0  0  0  0  0  0  0  0  0  0  0  0
    4.2928    1.5819   -1.4570 C   0  0  0  0  0  0  0  0  0  0  0  0
    5.5608    2.3117   -1.5339 N   0  0  0  0  0  0  0  0  0  0  0  0
    6.7951    1.7805   -1.5710 C   0  0  0  0  0  0  0  0  0  0  0  0
    7.6576    2.7620   -1.6389 N   0  0  0  0  0  0  0  0  0  0  0  0
    7.0146    3.9289   -1.6472 C   0  0  0  0  0  0  0  0  0  0  0  0
    5.7280    3.7050   -1.5898 N   0  0  0  0  0  0  0  0  0  0  0  0
    3.2373    3.4846   -0.4053 O   0  0  0  0  0  0  0  0  0  0  0  0
   -1.1491    1.9120   -0.2618 H   0  0  0  0  0  0  0  0  0  0  0  0
    0.9943    3.1169   -0.3801 H   0  0  0  0  0  0  0  0  0  0  0  0
    0.9497   -1.7843    0.1298 H   0  0  0  0  0  0  0  0  0  0  0  0
    4.5523    0.7878    1.0916 H   0  0  0  0  0  0  0  0  0  0  0  0
    5.1819    2.4512    1.0199 H   0  0  0  0  0  0  0  0  0  0  0  0
    3.4096    0.3738    3.3390 H   0  0  0  0  0  0  0  0  0  0  0  0
    1.6543    4.1235    4.0520 H   0  0  0  0  0  0  0  0  0  0  0  0
    4.4931    0.5170   -1.3389 H   0  0  0  0  0  0  0  0  0  0  0  0
    3.7235    1.7452   -2.3721 H   0  0  0  0  0  0  0  0  0  0  0  0
    7.0333    0.7273   -1.5481 H   0  0  0  0  0  0  0  0  0  0  0  0
    7.4806    4.9019   -1.6976 H   0  0  0  0  0  0  0  0  0  0  0  0
    2.7294    3.8722    0.3206 H   0  0  0  0  0  0  0  0  0  0  0  0
  1  6  2  0  0  0  0
  1  2  1  0  0  0  0
  1 23  1  0  0  0  0
  2  3  2  0  0  0  0
  2 24  1  0  0  0  0
  3  4  1  0  0  0  0
  3  9  1  0  0  0  0
  4  5  2  0  0  0  0
  4  8  1  0  0  0  0
  5  6  1  0  0  0  0
  5 25  1  0  0  0  0
  6  7  1  0  0  0  0
  9 10  1  0  0  0  0
  9 16  1  0  0  0  0
  9 22  1  6  0  0  0
 10 11  1  0  0  0  0
 10 26  1  0  0  0  0
 10 27  1  0  0  0  0
 11 15  1  0  0  0  0
 11 12  1  0  0  0  0
 12 13  2  0  0  0  0
 12 28  1  0  0  0  0
 13 14  1  0  0  0  0
 14 15  2  0  0  0  0
 14 29  1  0  0  0  0
 16 17  1  0  0  0  0
 16 30  1  0  0  0  0
 16 31  1  0  0  0  0
 17 21  1  0  0  0  0
 17 18  1  0  0  0  0
 18 19  2  0  0  0  0
 18 32  1  0  0  0  0
 19 20  1  0  0  0  0
 20 21  2  0  0  0  0
 20 33  1  0  0  0  0
 22 34  1  0  0  0  0
M  END
$$$$
