ZINC13540266
 OpenBabel08292219463D

 41 43  0  0  0  0  0  0  0  0999 V2000
   -0.0163    1.3544    0.0095 C   0  0  0  0  0  0  0  0  0  0  0  0
    1.1954    2.0667    0.0017 C   0  0  0  0  0  0  0  0  0  0  0  0
    2.3740    1.4093   -0.0135 C   0  0  0  0  0  0  0  0  0  0  0  0
    2.4120    0.0471   -0.0216 N   0  0  0  0  0  0  0  0  0  0  0  0
    1.2455   -0.6792   -0.0139 C   0  0  0  0  0  0  0  0  0  0  0  0
    0.0021   -0.0041    0.0020 C   0  0  0  0  0  0  0  0  0  0  0  0
    1.2846   -1.9955   -0.0223 N   0  0  0  0  0  0  0  0  0  0  0  0
    2.7426   -2.7805   -0.0420 S   0  0  0  0  0  0  0  0  0  0  0  0
    3.3484   -2.4805   -1.2919 O   0  0  0  0  0  0  0  0  0  0  0  0
    3.3741   -2.4955    1.1986 O   0  0  0  0  0  0  0  0  0  0  0  0
    2.4033   -4.5095   -0.0489 C   0  0  0  0  0  0  0  0  0  0  0  0
    2.2775   -5.1913    1.1488 C   0  0  0  0  0  0  0  0  0  0  0  0
    2.0121   -6.5446    1.1512 C   0  0  0  0  0  0  0  0  0  0  0  0
    1.8700   -7.2274   -0.0598 C   0  0  0  0  0  0  0  0  0  0  0  0
    1.9984   -6.5323   -1.2653 C   0  0  0  0  0  0  0  0  0  0  0  0
    2.2583   -5.1779   -1.2520 C   0  0  0  0  0  0  0  0  0  0  0  0
    1.6072   -8.5691   -0.0651 N   0  0  0  0  0  0  0  0  0  0  0  0
    1.4767   -9.1963   -1.1848 N   0  0  0  0  0  0  0  0  0  0  0  0
    1.2142  -10.5365   -1.1901 C   0  0  0  0  0  0  0  0  0  0  0  0
    1.0808  -11.2293    0.0207 C   0  0  0  0  0  0  0  0  0  0  0  0
    0.8163  -12.5798    0.0215 C   0  0  0  0  0  0  0  0  0  0  0  0
    0.6788  -13.2675   -1.1779 C   0  0  0  0  0  0  0  0  0  0  0  0
    0.8102  -12.5843   -2.3984 C   0  0  0  0  0  0  0  0  0  0  0  0
    1.0732  -11.2142   -2.3997 C   0  0  0  0  0  0  0  0  0  0  0  0
    0.6655  -13.3103   -3.6709 C   0  0  0  0  0  0  0  0  0  0  0  0
    0.7805  -12.7130   -4.7323 O   0  0  0  0  0  0  0  0  0  0  0  0
    0.4304  -14.5108   -3.6669 O   0  0  0  0  0  1  0  0  0  0  0  0
    0.4183  -14.5972   -1.1705 O   0  0  0  0  0  0  0  0  0  0  0  0
   -0.9573    1.8844    0.0258 H   0  0  0  0  0  0  0  0  0  0  0  0
    1.1833    3.1466    0.0077 H   0  0  0  0  0  0  0  0  0  0  0  0
    3.2975    1.9692   -0.0197 H   0  0  0  0  0  0  0  0  0  0  0  0
   -0.9223   -0.5626    0.0078 H   0  0  0  0  0  0  0  0  0  0  0  0
    2.3879   -4.6623    2.0839 H   0  0  0  0  0  0  0  0  0  0  0  0
    1.9145   -7.0754    2.0867 H   0  0  0  0  0  0  0  0  0  0  0  0
    1.8902   -7.0536   -2.2049 H   0  0  0  0  0  0  0  0  0  0  0  0
    2.3531   -4.6385   -2.1828 H   0  0  0  0  0  0  0  0  0  0  0  0
    1.1865  -10.7013    0.9569 H   0  0  0  0  0  0  0  0  0  0  0  0
    0.7155  -13.1074    0.9585 H   0  0  0  0  0  0  0  0  0  0  0  0
    1.1714  -10.6819   -3.3342 H   0  0  0  0  0  0  0  0  0  0  0  0
   -0.5242  -14.8133   -1.1663 H   0  0  0  0  0  0  0  0  0  0  0  0
    3.2664   -0.4120   -0.0332 H   0  0  0  0  0  0  0  0  0  0  0  0
  1  6  2  0  0  0  0
  1  2  1  0  0  0  0
  1 29  1  0  0  0  0
  2  3  2  0  0  0  0
  2 30  1  0  0  0  0
  3  4  1  0  0  0  0
  3 31  1  0  0  0  0
  4  5  1  0  0  0  0
  4 41  1  0  0  0  0
  5  6  1  0  0  0  0
  5  7  2  0  0  0  0
  6 32  1  0  0  0  0
  7  8  1  0  0  0  0
  8  9  2  0  0  0  0
  8 10  2  0  0  0  0
  8 11  1  0  0  0  0
 11 16  2  0  0  0  0
 11 12  1  0  0  0  0
 12 13  2  0  0  0  0
 12 33  1  0  0  0  0
 13 14  1  0  0  0  0
 13 34  1  0  0  0  0
 14 15  2  0  0  0  0
 14 17  1  0  0  0  0
 15 16  1  0  0  0  0
 15 35  1  0  0  0  0
 16 36  1  0  0  0  0
 17 18  2  0  0  0  0
 18 19  1  0  0  0  0
 19 24  2  0  0  0  0
 19 20  1  0  0  0  0
 20 21  2  0  0  0  0
 20 37  1  0  0  0  0
 21 22  1  0  0  0  0
 21 38  1  0  0  0  0
 22 23  2  0  0  0  0
 22 28  1  0  0  0  0
 23 24  1  0  0  0  0
 23 25  1  0  0  0  0
 24 39  1  0  0  0  0
 25 26  2  0  0  0  0
 25 27  1  0  0  0  0
 28 40  1  0  0  0  0
M  END
$$$$
