ZINC14879963
 OpenBabel08292219463D

 94 97  0  0  1  0  0  0  0  0999 V2000
    3.1628    3.3651    0.6525 C   0  0  0  0  0  0  0  0  0  0  0  0
    2.1865    3.7969   -0.4436 C   0  0  0  0  0  0  0  0  0  0  0  0
    0.9469    2.9008   -0.4043 C   0  0  0  0  0  0  0  0  0  0  0  0
    1.7718    5.2515   -0.2132 C   0  0  0  0  0  0  0  0  0  0  0  0
    2.9903    3.6465   -2.0628 S   0  0  0  0  0  0  0  0  0  0  0  0
    2.0294    3.9325   -3.0699 O   0  0  0  0  0  0  0  0  0  0  0  0
    4.2022    4.3877   -2.0336 O   0  0  0  0  0  0  0  0  0  0  0  0
    3.3992    1.8811   -2.1448 C   0  0  0  0  0  0  0  0  0  0  0  0
    4.0283    1.5658   -3.5034 C   0  0  2  0  0  0  0  0  0  0  0  0
    4.1739    0.4895   -3.5954 H   0  0  0  0  0  0  0  0  0  0  0  0
    5.3795    2.2747   -3.6166 C   0  0  0  0  0  0  0  0  0  0  0  0
    6.3314    1.7076   -2.5952 C   0  0  0  0  0  0  0  0  0  0  0  0
    6.4006    2.2632   -1.3314 C   0  0  0  0  0  0  0  0  0  0  0  0
    7.2738    1.7430   -0.3945 C   0  0  0  0  0  0  0  0  0  0  0  0
    8.0775    0.6669   -0.7213 C   0  0  0  0  0  0  0  0  0  0  0  0
    8.0077    0.1107   -1.9849 C   0  0  0  0  0  0  0  0  0  0  0  0
    7.1314    0.6282   -2.9204 C   0  0  0  0  0  0  0  0  0  0  0  0
    3.1159    2.0452   -4.6028 C   0  0  0  0  0  0  0  0  0  0  0  0
    3.5334    2.8086   -5.4477 O   0  0  0  0  0  0  0  0  0  0  0  0
    1.8359    1.6255   -4.6472 N   0  0  0  0  0  0  0  0  0  0  0  0
    0.9302    2.1442   -5.6752 C   0  0  1  0  0  0  0  0  0  0  0  0
    1.1716    3.1873   -5.8793 H   0  0  0  0  0  0  0  0  0  0  0  0
    1.0898    1.3236   -6.9567 C   0  0  0  0  0  0  0  0  0  0  0  0
    2.4772    1.5221   -7.5107 C   0  0  0  0  0  0  0  0  0  0  0  0
    2.8866    2.5261   -8.3094 C   0  0  0  0  0  0  0  0  0  0  0  0
    4.1873    2.3387   -8.5779 N   0  0  0  0  0  0  0  0  0  0  0  0
    4.5995    1.2567   -7.9759 C   0  0  0  0  0  0  0  0  0  0  0  0
    3.5648    0.7198   -7.2940 N   0  0  0  0  0  0  0  0  0  0  0  0
    3.5876   -0.0853   -6.7534 H   0  0  0  0  0  0  0  0  0  0  0  0
   -0.4925    2.0437   -5.1884 C   0  0  0  0  0  0  0  0  0  0  0  0
   -0.7268    1.5841   -4.0908 O   0  0  0  0  0  0  0  0  0  0  0  0
   -1.5044    2.4647   -5.9727 N   0  0  0  0  0  0  0  0  0  0  0  0
   -2.8874    2.3670   -5.4995 C   0  0  2  0  0  0  0  0  0  0  0  0
   -3.0017    1.4678   -4.8941 H   0  0  0  0  0  0  0  0  0  0  0  0
   -3.8335    2.2973   -6.6998 C   0  0  0  0  0  0  0  0  0  0  0  0
   -5.2684    2.0982   -6.2074 C   0  0  0  0  0  0  0  0  0  0  0  0
   -5.3932    0.7267   -5.5409 C   0  0  0  0  0  0  0  0  0  0  0  0
   -6.8280    0.5276   -5.0485 C   0  0  0  0  0  0  0  0  0  0  0  0
   -7.7902    0.6073   -6.2354 C   0  0  0  0  0  0  0  0  0  0  0  0
   -7.6654    1.9788   -6.9019 C   0  0  0  0  0  0  0  0  0  0  0  0
   -6.2306    2.1779   -7.3943 C   0  0  0  0  0  0  0  0  0  0  0  0
   -3.2254    3.5969   -4.6545 C   0  0  1  0  0  0  0  0  0  0  0  0
   -4.2664    3.5440   -4.3358 H   0  0  0  0  0  0  0  0  0  0  0  0
   -2.3167    3.6358   -3.4242 C   0  0  1  0  0  0  0  0  0  0  0  0
   -1.2744    3.6534   -3.7426 H   0  0  0  0  0  0  0  0  0  0  0  0
   -2.6209    4.8916   -2.6049 C   0  0  0  0  0  0  0  0  0  0  0  0
   -1.5485    5.9818   -2.5585 C   0  0  0  0  0  0  0  0  0  0  0  0
   -1.8111    5.1142   -1.3260 C   0  0  0  0  0  0  0  0  0  0  0  0
   -2.5503    2.4760   -2.6227 O   0  0  0  0  0  0  0  0  0  0  0  0
   -3.0249    4.7789   -5.4322 O   0  0  0  0  0  0  0  0  0  0  0  0
    3.4582    2.3288    0.4883 H   0  0  0  0  0  0  0  0  0  0  0  0
    4.0459    4.0035    0.6245 H   0  0  0  0  0  0  0  0  0  0  0  0
    2.6798    3.4555    1.6254 H   0  0  0  0  0  0  0  0  0  0  0  0
    0.4640    2.9912    0.5686 H   0  0  0  0  0  0  0  0  0  0  0  0
    0.2514    3.2084   -1.1852 H   0  0  0  0  0  0  0  0  0  0  0  0
    1.2423    1.8646   -0.5685 H   0  0  0  0  0  0  0  0  0  0  0  0
    2.6549    5.8898   -0.2412 H   0  0  0  0  0  0  0  0  0  0  0  0
    1.0763    5.5590   -0.9941 H   0  0  0  0  0  0  0  0  0  0  0  0
    1.2888    5.3418    0.7598 H   0  0  0  0  0  0  0  0  0  0  0  0
    4.1050    1.6344   -1.3516 H   0  0  0  0  0  0  0  0  0  0  0  0
    2.4911    1.2915   -2.0193 H   0  0  0  0  0  0  0  0  0  0  0  0
    5.7866    2.1232   -4.6163 H   0  0  0  0  0  0  0  0  0  0  0  0
    5.2463    3.3414   -3.4363 H   0  0  0  0  0  0  0  0  0  0  0  0
    5.7726    3.1040   -1.0760 H   0  0  0  0  0  0  0  0  0  0  0  0
    7.3283    2.1776    0.5927 H   0  0  0  0  0  0  0  0  0  0  0  0
    8.7603    0.2609    0.0104 H   0  0  0  0  0  0  0  0  0  0  0  0
    8.6359   -0.7299   -2.2404 H   0  0  0  0  0  0  0  0  0  0  0  0
    7.0742    0.1913   -3.9064 H   0  0  0  0  0  0  0  0  0  0  0  0
    1.5144    0.9800   -3.9985 H   0  0  0  0  0  0  0  0  0  0  0  0
    0.9352    0.2679   -6.7338 H   0  0  0  0  0  0  0  0  0  0  0  0
    0.3547    1.6512   -7.6918 H   0  0  0  0  0  0  0  0  0  0  0  0
    2.2749    3.3396   -8.6705 H   0  0  0  0  0  0  0  0  0  0  0  0
    5.6028    0.8587   -8.0135 H   0  0  0  0  0  0  0  0  0  0  0  0
   -1.3171    2.8323   -6.8506 H   0  0  0  0  0  0  0  0  0  0  0  0
   -3.7697    3.2258   -7.2672 H   0  0  0  0  0  0  0  0  0  0  0  0
   -3.5492    1.4610   -7.3385 H   0  0  0  0  0  0  0  0  0  0  0  0
   -5.5162    2.8767   -5.4859 H   0  0  0  0  0  0  0  0  0  0  0  0
   -5.1453   -0.0518   -6.2624 H   0  0  0  0  0  0  0  0  0  0  0  0
   -4.7077    0.6700   -4.6953 H   0  0  0  0  0  0  0  0  0  0  0  0
   -6.9169   -0.4495   -4.5736 H   0  0  0  0  0  0  0  0  0  0  0  0
   -7.0758    1.3061   -4.3269 H   0  0  0  0  0  0  0  0  0  0  0  0
   -7.5424   -0.1713   -6.9569 H   0  0  0  0  0  0  0  0  0  0  0  0
   -8.8124    0.4654   -5.8846 H   0  0  0  0  0  0  0  0  0  0  0  0
   -8.3509    2.0355   -7.7475 H   0  0  0  0  0  0  0  0  0  0  0  0
   -7.9133    2.7573   -6.1804 H   0  0  0  0  0  0  0  0  0  0  0  0
   -6.1417    3.1549   -7.8692 H   0  0  0  0  0  0  0  0  0  0  0  0
   -5.9828    1.3993   -8.1158 H   0  0  0  0  0  0  0  0  0  0  0  0
   -3.6633    5.2102   -2.6024 H   0  0  0  0  0  0  0  0  0  0  0  0
   -0.6262    5.8044   -3.1117 H   0  0  0  0  0  0  0  0  0  0  0  0
   -1.8852    7.0180   -2.5256 H   0  0  0  0  0  0  0  0  0  0  0  0
   -2.3206    5.5795   -0.4822 H   0  0  0  0  0  0  0  0  0  0  0  0
   -1.0616    4.3659   -1.0683 H   0  0  0  0  0  0  0  0  0  0  0  0
   -3.4596    2.3951   -2.3035 H   0  0  0  0  0  0  0  0  0  0  0  0
   -3.5700    4.8221   -6.2298 H   0  0  0  0  0  0  0  0  0  0  0  0
  1  2  1  0  0  0  0
  1 51  1  0  0  0  0
  1 52  1  0  0  0  0
  1 53  1  0  0  0  0
  2  3  1  0  0  0  0
  2  4  1  0  0  0  0
  2  5  1  0  0  0  0
  3 54  1  0  0  0  0
  3 55  1  0  0  0  0
  3 56  1  0  0  0  0
  4 57  1  0  0  0  0
  4 58  1  0  0  0  0
  4 59  1  0  0  0  0
  5  6  2  0  0  0  0
  5  7  2  0  0  0  0
  5  8  1  0  0  0  0
  8  9  1  0  0  0  0
  8 60  1  0  0  0  0
  8 61  1  0  0  0  0
  9 10  1  6  0  0  0
  9 11  1  0  0  0  0
  9 18  1  0  0  0  0
 11 12  1  0  0  0  0
 11 62  1  0  0  0  0
 11 63  1  0  0  0  0
 12 17  2  0  0  0  0
 12 13  1  0  0  0  0
 13 14  2  0  0  0  0
 13 64  1  0  0  0  0
 14 15  1  0  0  0  0
 14 65  1  0  0  0  0
 15 16  2  0  0  0  0
 15 66  1  0  0  0  0
 16 17  1  0  0  0  0
 16 67  1  0  0  0  0
 17 68  1  0  0  0  0
 18 19  2  0  0  0  0
 18 20  1  0  0  0  0
 20 21  1  0  0  0  0
 20 69  1  0  0  0  0
 21 22  1  6  0  0  0
 21 23  1  0  0  0  0
 21 30  1  0  0  0  0
 23 24  1  0  0  0  0
 23 70  1  0  0  0  0
 23 71  1  0  0  0  0
 24 28  1  0  0  0  0
 24 25  2  0  0  0  0
 25 26  1  0  0  0  0
 25 72  1  0  0  0  0
 26 27  2  0  0  0  0
 27 28  1  0  0  0  0
 27 73  1  0  0  0  0
 28 29  1  0  0  0  0
 30 31  2  0  0  0  0
 30 32  1  0  0  0  0
 32 33  1  0  0  0  0
 32 74  1  0  0  0  0
 33 34  1  1  0  0  0
 33 35  1  0  0  0  0
 33 42  1  0  0  0  0
 35 36  1  0  0  0  0
 35 75  1  0  0  0  0
 35 76  1  0  0  0  0
 36 41  1  0  0  0  0
 36 37  1  0  0  0  0
 36 77  1  0  0  0  0
 37 38  1  0  0  0  0
 37 78  1  0  0  0  0
 37 79  1  0  0  0  0
 38 39  1  0  0  0  0
 38 80  1  0  0  0  0
 38 81  1  0  0  0  0
 39 40  1  0  0  0  0
 39 82  1  0  0  0  0
 39 83  1  0  0  0  0
 40 41  1  0  0  0  0
 40 84  1  0  0  0  0
 40 85  1  0  0  0  0
 41 86  1  0  0  0  0
 41 87  1  0  0  0  0
 42 43  1  1  0  0  0
 42 44  1  0  0  0  0
 42 50  1  0  0  0  0
 44 45  1  6  0  0  0
 44 46  1  0  0  0  0
 44 49  1  0  0  0  0
 46 48  1  0  0  0  0
 46 47  1  0  0  0  0
 46 88  1  0  0  0  0
 47 48  1  0  0  0  0
 47 89  1  0  0  0  0
 47 90  1  0  0  0  0
 48 91  1  0  0  0  0
 48 92  1  0  0  0  0
 49 93  1  0  0  0  0
 50 94  1  0  0  0  0
M  END
$$$$
