ZINC03781664
 OpenBabel08292219463D

 32 33  0  0  1  0  0  0  0  0999 V2000
   -0.0187    1.5258    0.0104 C   0  0  0  0  0  0  0  0  0  0  0  0
    0.0021   -0.0041    0.0020 C   0  0  0  0  0  0  0  0  0  0  0  0
   -1.4333   -0.5336    0.0129 C   0  0  0  0  0  0  0  0  0  0  0  0
   -1.4134   -2.0025    0.0048 N   0  3  0  0  0  0  0  0  0  0  0  0
   -2.7915   -2.5110    0.0152 C   0  0  1  0  0  0  0  0  0  0  0  0
   -3.3461   -2.0802   -0.8185 H   0  0  0  0  0  0  0  0  0  0  0  0
   -2.7765   -4.0369   -0.1122 C   0  0  0  0  0  0  0  0  0  0  0  0
   -4.1953   -4.5592   -0.3482 C   0  0  0  0  0  0  0  0  0  0  0  0
   -5.1078   -3.9988    0.7337 C   0  0  0  0  0  0  0  0  0  0  0  0
   -4.7343   -2.9139    1.4578 C   0  0  0  0  0  0  0  0  0  0  0  0
   -6.1113   -2.6832    2.5473 S   0  0  0  0  0  0  0  0  0  0  0  0
   -7.0448   -3.9744    1.9981 C   0  0  0  0  0  0  0  0  0  0  0  0
   -6.2991   -4.5010    1.0514 N   0  0  0  0  0  0  0  0  0  0  0  0
   -8.2945   -4.3823    2.4377 N   0  0  0  0  0  0  0  0  0  0  0  0
   -3.4720   -2.1278    1.3393 C   0  0  0  0  0  0  0  0  0  0  0  0
    1.0039    1.9031    0.0027 H   0  0  0  0  0  0  0  0  0  0  0  0
   -0.5459    1.8868   -0.8726 H   0  0  0  0  0  0  0  0  0  0  0  0
   -0.5289    1.8773    0.9072 H   0  0  0  0  0  0  0  0  0  0  0  0
    0.5123   -0.3556   -0.8948 H   0  0  0  0  0  0  0  0  0  0  0  0
    0.5293   -0.3651    0.8851 H   0  0  0  0  0  0  0  0  0  0  0  0
   -1.9435   -0.1821    0.9097 H   0  0  0  0  0  0  0  0  0  0  0  0
   -1.9605   -0.1726   -0.8702 H   0  0  0  0  0  0  0  0  0  0  0  0
   -0.9411   -2.3279   -0.8254 H   0  0  0  0  0  0  0  0  0  0  0  0
   -2.1418   -4.3233   -0.9507 H   0  0  0  0  0  0  0  0  0  0  0  0
   -2.3790   -4.4722    0.8047 H   0  0  0  0  0  0  0  0  0  0  0  0
   -4.5465   -4.2339   -1.3274 H   0  0  0  0  0  0  0  0  0  0  0  0
   -4.1968   -5.6482   -0.2999 H   0  0  0  0  0  0  0  0  0  0  0  0
   -8.7387   -3.8997    3.1523 H   0  0  0  0  0  0  0  0  0  0  0  0
   -8.7248   -5.1505    2.0307 H   0  0  0  0  0  0  0  0  0  0  0  0
   -2.8127   -2.3659    2.1740 H   0  0  0  0  0  0  0  0  0  0  0  0
   -3.6985   -1.0616    1.3414 H   0  0  0  0  0  0  0  0  0  0  0  0
   -0.9254   -2.3367    0.8222 H   0  0  0  0  0  0  0  0  0  0  0  0
  1  2  1  0  0  0  0
  1 16  1  0  0  0  0
  1 17  1  0  0  0  0
  1 18  1  0  0  0  0
  2  3  1  0  0  0  0
  2 19  1  0  0  0  0
  2 20  1  0  0  0  0
  3  4  1  0  0  0  0
  3 21  1  0  0  0  0
  3 22  1  0  0  0  0
  4  5  1  0  0  0  0
  4 23  1  0  0  0  0
  4 32  1  0  0  0  0
  5  6  1  6  0  0  0
  5 15  1  0  0  0  0
  5  7  1  0  0  0  0
  7  8  1  0  0  0  0
  7 24  1  0  0  0  0
  7 25  1  0  0  0  0
  8  9  1  0  0  0  0
  8 26  1  0  0  0  0
  8 27  1  0  0  0  0
  9 13  1  0  0  0  0
  9 10  2  0  0  0  0
 10 11  1  0  0  0  0
 10 15  1  0  0  0  0
 11 12  1  0  0  0  0
 12 13  2  0  0  0  0
 12 14  1  0  0  0  0
 14 28  1  0  0  0  0
 14 29  1  0  0  0  0
 15 30  1  0  0  0  0
 15 31  1  0  0  0  0
M  CHG  1   4   1
M  END
$$$$
