ZINC19632834
 OpenBabel08292219463D

 44 47  0  0  1  0  0  0  0  0999 V2000
    0.2982    1.3156    3.0250 C   0  0  0  0  0  0  0  0  0  0  0  0
    0.7658    0.3538    2.0179 N   0  0  0  0  0  0  0  0  0  0  0  0
    2.2222    0.4381    1.8458 C   0  0  0  0  0  0  0  0  0  0  0  0
    2.6459   -0.4446    0.6670 C   0  0  0  0  0  0  0  0  0  0  0  0
    2.1232   -1.8015    0.8879 N   0  0  0  0  0  0  0  0  0  0  0  0
    0.6946   -1.9543    1.2026 C   0  0  0  0  0  0  0  0  0  0  0  0
    0.3478   -1.0121    2.3603 C   0  0  0  0  0  0  0  0  0  0  0  0
    2.9318   -2.8765    0.8037 C   0  0  0  0  0  0  0  0  0  0  0  0
    4.1096   -2.7319    0.5423 O   0  0  0  0  0  0  0  0  0  0  0  0
    2.4345   -4.1107    1.0092 O   0  0  0  0  0  0  0  0  0  0  0  0
    3.3203   -5.2112    0.7942 C   0  0  1  0  0  0  0  0  0  0  0  0
    4.1109   -4.9250    0.1005 H   0  0  0  0  0  0  0  0  0  0  0  0
    3.9181   -5.6588    2.1048 C   0  0  0  0  0  0  0  0  0  0  0  0
    3.5232   -6.9853    2.2866 C   0  0  0  0  0  0  0  0  0  0  0  0
    3.9139   -7.6405    3.3767 N   0  0  0  0  0  0  0  0  0  0  0  0
    4.6675   -7.0351    4.2726 C   0  0  0  0  0  0  0  0  0  0  0  0
    5.0556   -5.7165    4.0851 C   0  0  0  0  0  0  0  0  0  0  0  0
    4.6710   -5.0594    3.0034 N   0  0  0  0  0  0  0  0  0  0  0  0
    2.6949   -7.3847    1.1292 C   0  0  0  0  0  0  0  0  0  0  0  0
    2.1928   -8.4811    0.9792 O   0  0  0  0  0  0  0  0  0  0  0  0
    2.5772   -6.3602    0.2650 N   0  0  0  0  0  0  0  0  0  0  0  0
    1.8672   -6.3853   -0.9338 C   0  0  0  0  0  0  0  0  0  0  0  0
    1.9775   -5.3210   -1.8219 C   0  0  0  0  0  0  0  0  0  0  0  0
    1.2673   -5.3582   -3.0086 C   0  0  0  0  0  0  0  0  0  0  0  0
    0.4673   -6.4641   -3.2677 C   0  0  0  0  0  0  0  0  0  0  0  0
    0.4052   -7.4860   -2.3395 C   0  0  0  0  0  0  0  0  0  0  0  0
    1.0985   -7.4244   -1.2187 N   0  0  0  0  0  0  0  0  0  0  0  0
   -0.4451   -6.5610   -4.7415 Cl  0  0  0  0  0  0  0  0  0  0  0  0
    0.7163    1.0556    3.9974 H   0  0  0  0  0  0  0  0  0  0  0  0
    0.6213    2.3188    2.7470 H   0  0  0  0  0  0  0  0  0  0  0  0
   -0.7902    1.2860    3.0779 H   0  0  0  0  0  0  0  0  0  0  0  0
    2.5058    1.4715    1.6467 H   0  0  0  0  0  0  0  0  0  0  0  0
    2.7163    0.0935    2.7542 H   0  0  0  0  0  0  0  0  0  0  0  0
    2.2362   -0.0406   -0.2587 H   0  0  0  0  0  0  0  0  0  0  0  0
    3.7337   -0.4767    0.6060 H   0  0  0  0  0  0  0  0  0  0  0  0
    0.0974   -1.6954    0.3283 H   0  0  0  0  0  0  0  0  0  0  0  0
    0.4923   -2.9845    1.4957 H   0  0  0  0  0  0  0  0  0  0  0  0
    0.8680   -1.3365    3.2616 H   0  0  0  0  0  0  0  0  0  0  0  0
   -0.7281   -1.0304    2.5343 H   0  0  0  0  0  0  0  0  0  0  0  0
    4.9841   -7.5680    5.1571 H   0  0  0  0  0  0  0  0  0  0  0  0
    5.6728   -5.2258    4.8231 H   0  0  0  0  0  0  0  0  0  0  0  0
    2.6088   -4.4765   -1.5882 H   0  0  0  0  0  0  0  0  0  0  0  0
    1.3331   -4.5459   -3.7173 H   0  0  0  0  0  0  0  0  0  0  0  0
   -0.2155   -8.3477   -2.5359 H   0  0  0  0  0  0  0  0  0  0  0  0
  1  2  1  0  0  0  0
  1 29  1  0  0  0  0
  1 30  1  0  0  0  0
  1 31  1  0  0  0  0
  2  7  1  0  0  0  0
  2  3  1  0  0  0  0
  3  4  1  0  0  0  0
  3 32  1  0  0  0  0
  3 33  1  0  0  0  0
  4  5  1  0  0  0  0
  4 34  1  0  0  0  0
  4 35  1  0  0  0  0
  5  6  1  0  0  0  0
  5  8  1  0  0  0  0
  6  7  1  0  0  0  0
  6 36  1  0  0  0  0
  6 37  1  0  0  0  0
  7 38  1  0  0  0  0
  7 39  1  0  0  0  0
  8  9  2  0  0  0  0
  8 10  1  0  0  0  0
 10 11  1  0  0  0  0
 11 12  1  6  0  0  0
 11 21  1  0  0  0  0
 11 13  1  0  0  0  0
 13 18  2  0  0  0  0
 13 14  1  0  0  0  0
 14 15  2  0  0  0  0
 14 19  1  0  0  0  0
 15 16  1  0  0  0  0
 16 17  2  0  0  0  0
 16 40  1  0  0  0  0
 17 18  1  0  0  0  0
 17 41  1  0  0  0  0
 19 20  2  0  0  0  0
 19 21  1  0  0  0  0
 21 22  1  0  0  0  0
 22 27  2  0  0  0  0
 22 23  1  0  0  0  0
 23 24  2  0  0  0  0
 23 42  1  0  0  0  0
 24 25  1  0  0  0  0
 24 43  1  0  0  0  0
 25 26  2  0  0  0  0
 25 28  1  0  0  0  0
 26 27  1  0  0  0  0
 26 44  1  0  0  0  0
M  END
$$$$
