ZINC00968274
 OpenBabel08292219463D

 54 56  0  0  1  0  0  0  0  0999 V2000
   -0.1352    1.1091   -0.4300 C   0  0  0  0  0  0  0  0  0  0  0  0
    0.7513    1.5676    0.5264 C   0  0  0  0  0  0  0  0  0  0  0  0
    1.9959    0.9797    0.6535 C   0  0  0  0  0  0  0  0  0  0  0  0
    2.3539   -0.0669   -0.1755 C   0  0  0  0  0  0  0  0  0  0  0  0
    1.4671   -0.5260   -1.1313 C   0  0  0  0  0  0  0  0  0  0  0  0
    0.2229    0.0628   -1.2594 C   0  0  0  0  0  0  0  0  0  0  0  0
    3.7112   -0.7071   -0.0376 C   0  0  2  0  0  0  0  0  0  0  0  0
    4.2610   -1.0411   -1.4258 C   0  0  0  0  0  0  0  0  0  0  0  0
    5.5803   -1.8024   -1.2822 C   0  0  0  0  0  0  0  0  0  0  0  0
    6.1082   -2.1230   -2.6150 N   0  3  0  0  0  0  0  0  0  0  0  0
    5.1901   -3.0450   -3.2945 C   0  0  0  0  0  0  0  0  0  0  0  0
    5.6935   -3.3187   -4.7133 C   0  0  0  0  0  0  0  0  0  0  0  0
    7.0889   -3.9455   -4.6421 C   0  0  0  0  0  0  0  0  0  0  0  0
    8.0196   -3.0086   -3.8667 C   0  0  0  0  0  0  0  0  0  0  0  0
    7.4301   -2.7465   -2.4792 C   0  0  0  0  0  0  0  0  0  0  0  0
    3.5881   -1.9915    0.7847 C   0  0  0  0  0  0  0  0  0  0  0  0
    2.6851   -2.9836    0.0490 C   0  0  0  0  0  0  0  0  0  0  0  0
    2.5620   -4.2679    0.8713 C   0  0  0  0  0  0  0  0  0  0  0  0
    1.9553   -3.9425    2.2376 C   0  0  0  0  0  0  0  0  0  0  0  0
    2.8582   -2.9504    2.9734 C   0  0  0  0  0  0  0  0  0  0  0  0
    2.9813   -1.6660    2.1511 C   0  0  0  0  0  0  0  0  0  0  0  0
    4.5997    0.1973    0.6217 O   0  0  0  0  0  0  0  0  0  0  0  0
   -1.1093    1.5654   -0.5263 H   0  0  0  0  0  0  0  0  0  0  0  0
    0.4716    2.3853    1.1741 H   0  0  0  0  0  0  0  0  0  0  0  0
    2.6888    1.3384    1.4003 H   0  0  0  0  0  0  0  0  0  0  0  0
    1.7469   -1.3435   -1.7792 H   0  0  0  0  0  0  0  0  0  0  0  0
   -0.4698   -0.2957   -2.0064 H   0  0  0  0  0  0  0  0  0  0  0  0
    3.5413   -1.6593   -1.9625 H   0  0  0  0  0  0  0  0  0  0  0  0
    4.4323   -0.1185   -1.9803 H   0  0  0  0  0  0  0  0  0  0  0  0
    6.3000   -1.1842   -0.7455 H   0  0  0  0  0  0  0  0  0  0  0  0
    5.4090   -2.7250   -0.7277 H   0  0  0  0  0  0  0  0  0  0  0  0
    5.1407   -3.9821   -2.7399 H   0  0  0  0  0  0  0  0  0  0  0  0
    4.1968   -2.5988   -3.3416 H   0  0  0  0  0  0  0  0  0  0  0  0
    5.0115   -4.0048   -5.2155 H   0  0  0  0  0  0  0  0  0  0  0  0
    5.7431   -2.3822   -5.2689 H   0  0  0  0  0  0  0  0  0  0  0  0
    7.0311   -4.9066   -4.1312 H   0  0  0  0  0  0  0  0  0  0  0  0
    7.4754   -4.0903   -5.6509 H   0  0  0  0  0  0  0  0  0  0  0  0
    9.0003   -3.4732   -3.7636 H   0  0  0  0  0  0  0  0  0  0  0  0
    8.1175   -2.0657   -4.4046 H   0  0  0  0  0  0  0  0  0  0  0  0
    8.0904   -2.0799   -1.9244 H   0  0  0  0  0  0  0  0  0  0  0  0
    7.3329   -3.6899   -1.9420 H   0  0  0  0  0  0  0  0  0  0  0  0
    4.5759   -2.4315    0.9214 H   0  0  0  0  0  0  0  0  0  0  0  0
    1.6973   -2.5435   -0.0877 H   0  0  0  0  0  0  0  0  0  0  0  0
    3.1174   -3.2154   -0.9244 H   0  0  0  0  0  0  0  0  0  0  0  0
    1.9188   -4.9747    0.3471 H   0  0  0  0  0  0  0  0  0  0  0  0
    3.5499   -4.7079    1.0079 H   0  0  0  0  0  0  0  0  0  0  0  0
    0.9674   -3.5024    2.1010 H   0  0  0  0  0  0  0  0  0  0  0  0
    1.8676   -4.8575    2.8234 H   0  0  0  0  0  0  0  0  0  0  0  0
    2.4259   -2.7186    3.9468 H   0  0  0  0  0  0  0  0  0  0  0  0
    3.8460   -3.3904    3.1100 H   0  0  0  0  0  0  0  0  0  0  0  0
    3.6246   -0.9593    2.6753 H   0  0  0  0  0  0  0  0  0  0  0  0
    1.9935   -1.2260    2.0144 H   0  0  0  0  0  0  0  0  0  0  0  0
    4.7254    1.0351    0.1555 H   0  0  0  0  0  0  0  0  0  0  0  0
    6.1913   -1.2751   -3.1557 H   0  0  0  0  0  0  0  0  0  0  0  0
  1  6  2  0  0  0  0
  1  2  1  0  0  0  0
  1 23  1  0  0  0  0
  2  3  2  0  0  0  0
  2 24  1  0  0  0  0
  3  4  1  0  0  0  0
  3 25  1  0  0  0  0
  4  5  2  0  0  0  0
  4  7  1  0  0  0  0
  5  6  1  0  0  0  0
  5 26  1  0  0  0  0
  6 27  1  0  0  0  0
  7  8  1  0  0  0  0
  7 16  1  0  0  0  0
  7 22  1  1  0  0  0
  8  9  1  0  0  0  0
  8 28  1  0  0  0  0
  8 29  1  0  0  0  0
  9 10  1  0  0  0  0
  9 30  1  0  0  0  0
  9 31  1  0  0  0  0
 10 15  1  0  0  0  0
 10 11  1  0  0  0  0
 10 54  1  0  0  0  0
 11 12  1  0  0  0  0
 11 32  1  0  0  0  0
 11 33  1  0  0  0  0
 12 13  1  0  0  0  0
 12 34  1  0  0  0  0
 12 35  1  0  0  0  0
 13 14  1  0  0  0  0
 13 36  1  0  0  0  0
 13 37  1  0  0  0  0
 14 15  1  0  0  0  0
 14 38  1  0  0  0  0
 14 39  1  0  0  0  0
 15 40  1  0  0  0  0
 15 41  1  0  0  0  0
 16 21  1  0  0  0  0
 16 17  1  0  0  0  0
 16 42  1  0  0  0  0
 17 18  1  0  0  0  0
 17 43  1  0  0  0  0
 17 44  1  0  0  0  0
 18 19  1  0  0  0  0
 18 45  1  0  0  0  0
 18 46  1  0  0  0  0
 19 20  1  0  0  0  0
 19 47  1  0  0  0  0
 19 48  1  0  0  0  0
 20 21  1  0  0  0  0
 20 49  1  0  0  0  0
 20 50  1  0  0  0  0
 21 51  1  0  0  0  0
 21 52  1  0  0  0  0
 22 53  1  0  0  0  0
M  CHG  1  10   1
M  END
$$$$
