ZINC01851132
 OpenBabel08292219463D

 50 52  0  0  1  0  0  0  0  0999 V2000
   -0.0167    1.3794    0.0096 C   0  0  0  0  0  0  0  0  0  0  0  0
    1.1667    2.0884    0.0021 C   0  0  0  0  0  0  0  0  0  0  0  0
    2.3848    1.4070   -0.0132 C   0  0  0  0  0  0  0  0  0  0  0  0
    2.3966    0.0113   -0.0208 C   0  0  0  0  0  0  0  0  0  0  0  0
    1.2061   -0.6856   -0.0132 C   0  0  0  0  0  0  0  0  0  0  0  0
    0.0021   -0.0041    0.0020 C   0  0  0  0  0  0  0  0  0  0  0  0
   -1.2946   -0.7719    0.0103 C   0  0  0  0  0  0  0  0  0  0  0  0
   -1.7472   -1.0241   -1.4293 C   0  0  0  0  0  0  0  0  0  0  0  0
   -3.0439   -1.7919   -1.4210 C   0  0  0  0  0  0  0  0  0  0  0  0
   -3.1874   -3.1243   -1.5149 C   0  0  0  0  0  0  0  0  0  0  0  0
   -4.5200   -3.4490   -1.4711 N   0  0  0  0  0  0  0  0  0  0  0  0
   -4.8743   -4.3505   -1.5209 H   0  0  0  0  0  0  0  0  0  0  0  0
   -5.2735   -2.3187   -1.3465 C   0  0  0  0  0  0  0  0  0  0  0  0
   -4.3891   -1.2318   -1.3029 C   0  0  0  0  0  0  0  0  0  0  0  0
   -4.9114    0.0734   -1.1699 C   0  0  0  0  0  0  0  0  0  0  0  0
   -4.1726    1.0423   -1.1322 O   0  0  0  0  0  0  0  0  0  0  0  0
   -6.2532    0.2199   -1.0861 N   0  0  0  0  0  0  0  0  0  0  0  0
   -6.6382    1.1055   -0.9942 H   0  0  0  0  0  0  0  0  0  0  0  0
   -7.0663   -0.8737   -1.1307 C   0  0  0  0  0  0  0  0  0  0  0  0
   -6.5926   -2.0916   -1.2621 N   0  0  0  0  0  0  0  0  0  0  0  0
   -8.4242   -0.6953   -1.0434 N   0  0  0  0  0  0  0  0  0  0  0  0
    3.6569    2.1603   -0.0218 C   0  0  0  0  0  0  0  0  0  0  0  0
    3.6435    3.3757   -0.0155 O   0  0  0  0  0  0  0  0  0  0  0  0
    4.8314    1.4994   -0.0366 N   0  0  0  0  0  0  0  0  0  0  0  0
    6.0919    2.2459   -0.0451 C   0  0  2  0  0  0  0  0  0  0  0  0
    5.9699    3.1583   -0.6287 H   0  0  0  0  0  0  0  0  0  0  0  0
    7.1909    1.3839   -0.6698 C   0  0  0  0  0  0  0  0  0  0  0  0
    6.8626    1.1271   -2.1419 C   0  0  0  0  0  0  0  0  0  0  0  0
    7.9450    0.2781   -2.7573 C   0  0  0  0  0  0  0  0  0  0  0  0
    8.8913   -0.0876   -2.0810 O   0  0  0  0  0  0  0  0  0  0  0  0
    7.8745   -0.0430   -3.9313 O   0  0  0  0  0  1  0  0  0  0  0  0
    6.4748    2.6012    1.3685 C   0  0  0  0  0  0  0  0  0  0  0  0
    6.1458    1.8742    2.2903 O   0  0  0  0  0  0  0  0  0  0  0  0
    7.1137    3.6157    1.5903 O   0  0  0  0  0  1  0  0  0  0  0  0
   -0.9598    1.9054    0.0260 H   0  0  0  0  0  0  0  0  0  0  0  0
    1.1508    3.1682    0.0077 H   0  0  0  0  0  0  0  0  0  0  0  0
    3.3358   -0.5219   -0.0330 H   0  0  0  0  0  0  0  0  0  0  0  0
    1.2138   -1.7656   -0.0191 H   0  0  0  0  0  0  0  0  0  0  0  0
   -1.1489   -1.7256    0.5176 H   0  0  0  0  0  0  0  0  0  0  0  0
   -2.0557   -0.1941    0.5345 H   0  0  0  0  0  0  0  0  0  0  0  0
   -1.8929   -0.0704   -1.9367 H   0  0  0  0  0  0  0  0  0  0  0  0
   -0.9861   -1.6019   -1.9536 H   0  0  0  0  0  0  0  0  0  0  0  0
   -2.3774   -3.8322   -1.6109 H   0  0  0  0  0  0  0  0  0  0  0  0
   -8.7912    0.1979   -0.9515 H   0  0  0  0  0  0  0  0  0  0  0  0
   -9.0171   -1.4624   -1.0735 H   0  0  0  0  0  0  0  0  0  0  0  0
    4.8421    0.5294   -0.0416 H   0  0  0  0  0  0  0  0  0  0  0  0
    8.1462    1.9034   -0.5958 H   0  0  0  0  0  0  0  0  0  0  0  0
    7.2523    0.4333   -0.1400 H   0  0  0  0  0  0  0  0  0  0  0  0
    5.9072    0.6076   -2.2159 H   0  0  0  0  0  0  0  0  0  0  0  0
    6.8012    2.0777   -2.6717 H   0  0  0  0  0  0  0  0  0  0  0  0
  1  6  2  0  0  0  0
  1  2  1  0  0  0  0
  1 35  1  0  0  0  0
  2  3  2  0  0  0  0
  2 36  1  0  0  0  0
  3  4  1  0  0  0  0
  3 22  1  0  0  0  0
  4  5  2  0  0  0  0
  4 37  1  0  0  0  0
  5  6  1  0  0  0  0
  5 38  1  0  0  0  0
  6  7  1  0  0  0  0
  7  8  1  0  0  0  0
  7 39  1  0  0  0  0
  7 40  1  0  0  0  0
  8  9  1  0  0  0  0
  8 41  1  0  0  0  0
  8 42  1  0  0  0  0
  9 14  1  0  0  0  0
  9 10  2  0  0  0  0
 10 11  1  0  0  0  0
 10 43  1  0  0  0  0
 11 12  1  0  0  0  0
 11 13  1  0  0  0  0
 13 20  1  0  0  0  0
 13 14  2  0  0  0  0
 14 15  1  0  0  0  0
 15 16  2  0  0  0  0
 15 17  1  0  0  0  0
 17 18  1  0  0  0  0
 17 19  1  0  0  0  0
 19 20  2  0  0  0  0
 19 21  1  0  0  0  0
 21 44  1  0  0  0  0
 21 45  1  0  0  0  0
 22 23  2  0  0  0  0
 22 24  1  0  0  0  0
 24 25  1  0  0  0  0
 24 46  1  0  0  0  0
 25 26  1  6  0  0  0
 25 27  1  0  0  0  0
 25 32  1  0  0  0  0
 27 28  1  0  0  0  0
 27 47  1  0  0  0  0
 27 48  1  0  0  0  0
 28 29  1  0  0  0  0
 28 49  1  0  0  0  0
 28 50  1  0  0  0  0
 29 30  2  0  0  0  0
 29 31  1  0  0  0  0
 32 33  2  0  0  0  0
 32 34  1  0  0  0  0
M  END
$$$$
