ZINC03929508
 OpenBabel08292219463D

 51 51  0  0  1  0  0  0  0  0999 V2000
   -0.0187    1.5258    0.0104 C   0  0  0  0  0  0  0  0  0  0  0  0
    0.0021   -0.0041    0.0020 C   0  0  0  0  0  0  0  0  0  0  0  0
    0.7182   -0.4975   -1.2568 C   0  0  0  0  0  0  0  0  0  0  0  0
    0.8493   -2.0210   -1.2049 C   0  0  0  0  0  0  0  0  0  0  0  0
    1.6735   -2.5029   -2.4004 C   0  0  0  0  0  0  0  0  0  0  0  0
   -0.0359   -0.1233   -2.4115 O   0  0  0  0  0  0  0  0  0  0  0  0
    0.7591    0.1000   -3.5777 C   0  0  2  0  0  0  0  0  0  0  0  0
    1.6460   -0.5323   -3.5369 H   0  0  0  0  0  0  0  0  0  0  0  0
    1.1771    1.5408   -3.6266 C   0  0  0  0  0  0  0  0  0  0  0  0
    1.1660    2.2692   -4.7231 C   0  0  0  0  0  0  0  0  0  0  0  0
    0.7250    1.7548   -6.0624 C   0  0  0  0  0  0  0  0  0  0  0  0
    0.7119    0.2247   -6.0606 C   0  0  1  0  0  0  0  0  0  0  0  0
    1.7348   -0.1501   -6.0243 H   0  0  0  0  0  0  0  0  0  0  0  0
   -0.0574   -0.2513   -4.8231 C   0  0  1  0  0  0  0  0  0  0  0  0
   -1.0261    0.2463   -4.7782 H   0  0  0  0  0  0  0  0  0  0  0  0
   -0.2479   -1.7021   -4.8936 N   0  0  0  0  0  0  0  0  0  0  0  0
   -1.2641   -2.2817   -4.2244 C   0  0  0  0  0  0  0  0  0  0  0  0
   -2.0208   -1.6022   -3.5637 O   0  0  0  0  0  0  0  0  0  0  0  0
   -1.4600   -3.7742   -4.2969 C   0  0  0  0  0  0  0  0  0  0  0  0
    0.0500   -0.2646   -7.2773 N   0  3  0  0  0  0  0  0  0  0  0  0
    1.6106    3.6668   -4.6304 C   0  0  0  0  0  0  0  0  0  0  0  0
    1.9746    4.1191   -3.5627 O   0  0  0  0  0  0  0  0  0  0  0  0
    1.6147    4.4471   -5.7296 O   0  0  0  0  0  0  0  0  0  0  0  0
    2.0593    5.7953   -5.5664 C   0  0  0  0  0  0  0  0  0  0  0  0
    1.9942    6.5202   -6.9122 C   0  0  0  0  0  0  0  0  0  0  0  0
    1.0039    1.9031    0.0027 H   0  0  0  0  0  0  0  0  0  0  0  0
   -0.5459    1.8868   -0.8726 H   0  0  0  0  0  0  0  0  0  0  0  0
   -0.5289    1.8773    0.9072 H   0  0  0  0  0  0  0  0  0  0  0  0
    0.5293   -0.3651    0.8851 H   0  0  0  0  0  0  0  0  0  0  0  0
   -1.0205   -0.3814    0.0098 H   0  0  0  0  0  0  0  0  0  0  0  0
    1.7103   -0.0491   -1.3098 H   0  0  0  0  0  0  0  0  0  0  0  0
    1.3468   -2.3116   -0.2797 H   0  0  0  0  0  0  0  0  0  0  0  0
   -0.1422   -2.4724   -1.2416 H   0  0  0  0  0  0  0  0  0  0  0  0
    1.7669   -3.5883   -2.3635 H   0  0  0  0  0  0  0  0  0  0  0  0
    1.1760   -2.2123   -3.3257 H   0  0  0  0  0  0  0  0  0  0  0  0
    2.6650   -2.0515   -2.3638 H   0  0  0  0  0  0  0  0  0  0  0  0
    1.5062    2.0066   -2.7095 H   0  0  0  0  0  0  0  0  0  0  0  0
   -0.2772    2.1244   -6.2793 H   0  0  0  0  0  0  0  0  0  0  0  0
    1.4127    2.1094   -6.8301 H   0  0  0  0  0  0  0  0  0  0  0  0
    0.3573   -2.2457   -5.4220 H   0  0  0  0  0  0  0  0  0  0  0  0
   -0.6897   -4.2113   -4.9323 H   0  0  0  0  0  0  0  0  0  0  0  0
   -1.3894   -4.1990   -3.2956 H   0  0  0  0  0  0  0  0  0  0  0  0
   -2.4427   -3.9917   -4.7154 H   0  0  0  0  0  0  0  0  0  0  0  0
    0.5511    0.0653   -8.0887 H   0  0  0  0  0  0  0  0  0  0  0  0
    0.0428   -1.2735   -7.2737 H   0  0  0  0  0  0  0  0  0  0  0  0
    1.4175    6.3051   -4.8478 H   0  0  0  0  0  0  0  0  0  0  0  0
    3.0865    5.7976   -5.2018 H   0  0  0  0  0  0  0  0  0  0  0  0
    2.6360    6.0105   -7.6308 H   0  0  0  0  0  0  0  0  0  0  0  0
    0.9670    6.5180   -7.2768 H   0  0  0  0  0  0  0  0  0  0  0  0
    2.3333    7.5486   -6.7877 H   0  0  0  0  0  0  0  0  0  0  0  0
   -0.8985    0.0785   -7.3054 H   0  0  0  0  0  0  0  0  0  0  0  0
  1  2  1  0  0  0  0
  1 26  1  0  0  0  0
  1 27  1  0  0  0  0
  1 28  1  0  0  0  0
  2  3  1  0  0  0  0
  2 29  1  0  0  0  0
  2 30  1  0  0  0  0
  3  4  1  0  0  0  0
  3  6  1  0  0  0  0
  3 31  1  0  0  0  0
  4  5  1  0  0  0  0
  4 32  1  0  0  0  0
  4 33  1  0  0  0  0
  5 34  1  0  0  0  0
  5 35  1  0  0  0  0
  5 36  1  0  0  0  0
  6  7  1  0  0  0  0
  7  8  1  1  0  0  0
  7 14  1  0  0  0  0
  7  9  1  0  0  0  0
  9 10  2  0  0  0  0
  9 37  1  0  0  0  0
 10 11  1  0  0  0  0
 10 21  1  0  0  0  0
 11 12  1  0  0  0  0
 11 38  1  0  0  0  0
 11 39  1  0  0  0  0
 12 13  1  1  0  0  0
 12 14  1  0  0  0  0
 12 20  1  0  0  0  0
 14 15  1  1  0  0  0
 14 16  1  0  0  0  0
 16 17  1  0  0  0  0
 16 40  1  0  0  0  0
 17 18  2  0  0  0  0
 17 19  1  0  0  0  0
 19 41  1  0  0  0  0
 19 42  1  0  0  0  0
 19 43  1  0  0  0  0
 20 44  1  0  0  0  0
 20 45  1  0  0  0  0
 20 51  1  0  0  0  0
 21 22  2  0  0  0  0
 21 23  1  0  0  0  0
 23 24  1  0  0  0  0
 24 25  1  0  0  0  0
 24 46  1  0  0  0  0
 24 47  1  0  0  0  0
 25 48  1  0  0  0  0
 25 49  1  0  0  0  0
 25 50  1  0  0  0  0
M  CHG  1  20   1
M  END
$$$$
