ZINC11616925
 OpenBabel08292219463D

 56 58  0  0  1  0  0  0  0  0999 V2000
    3.5048   -6.1892   -1.8120 C   0  0  0  0  0  0  0  0  0  0  0  0
    2.4681   -6.5154   -1.3679 C   0  0  0  0  0  0  0  0  0  0  0  0
    1.1683   -6.9243   -0.8111 C   0  0  0  0  0  0  0  0  0  0  0  0
    1.0500   -6.4225    0.6295 C   0  0  2  0  0  0  0  0  0  0  0  0
    1.9021   -6.7775    1.2090 H   0  0  0  0  0  0  0  0  0  0  0  0
   -0.2447   -6.9523    1.2493 C   0  0  0  0  0  0  0  0  0  0  0  0
   -0.1733   -8.4539    1.3548 C   0  0  0  0  0  0  0  0  0  0  0  0
    0.4467   -9.0399    2.4579 C   0  0  0  0  0  0  0  0  0  0  0  0
    0.5170  -10.3490    2.5747 N   0  0  0  0  0  0  0  0  0  0  0  0
   -0.0028  -11.1243    1.6198 C   0  0  0  0  0  0  0  0  0  0  0  0
   -0.6271  -10.5235    0.4983 C   0  0  0  0  0  0  0  0  0  0  0  0
   -0.6921   -9.1994    0.4023 N   0  0  0  0  0  0  0  0  0  0  0  0
   -1.1856  -11.4062   -0.5275 C   0  0  0  0  0  0  0  0  0  0  0  0
   -1.0728  -12.7142   -0.3427 N   0  0  0  0  0  0  0  0  0  0  0  0
   -0.4730  -13.2097    0.7351 C   0  0  0  0  0  0  0  0  0  0  0  0
    0.0461  -12.4605    1.6874 N   0  0  0  0  0  0  0  0  0  0  0  0
   -0.3897  -14.5829    0.8644 N   0  0  0  0  0  0  0  0  0  0  0  0
   -1.8076  -10.8953   -1.6455 N   0  0  0  0  0  0  0  0  0  0  0  0
    1.0304   -4.9157    0.6365 C   0  0  0  0  0  0  0  0  0  0  0  0
    2.0110   -4.2173    1.3184 C   0  0  0  0  0  0  0  0  0  0  0  0
    1.9983   -2.8379    1.3296 C   0  0  0  0  0  0  0  0  0  0  0  0
    0.9936   -2.1468    0.6506 C   0  0  0  0  0  0  0  0  0  0  0  0
    0.0046   -2.8574   -0.0314 C   0  0  0  0  0  0  0  0  0  0  0  0
    0.0316   -4.2367   -0.0386 C   0  0  0  0  0  0  0  0  0  0  0  0
    0.9736   -0.6685    0.6587 C   0  0  0  0  0  0  0  0  0  0  0  0
    1.8333   -0.0523    1.2576 O   0  0  0  0  0  0  0  0  0  0  0  0
    0.0021   -0.0041    0.0020 N   0  0  0  0  0  0  0  0  0  0  0  0
   -0.0178    1.4608    0.0101 C   0  0  1  0  0  0  0  0  0  0  0  0
    1.0048    1.8381    0.0023 H   0  0  0  0  0  0  0  0  0  0  0  0
   -0.7578    1.9676   -1.2295 C   0  0  0  0  0  0  0  0  0  0  0  0
    0.0259    1.5803   -2.4852 C   0  0  0  0  0  0  0  0  0  0  0  0
   -0.7030    2.0796   -3.7061 C   0  0  0  0  0  0  0  0  0  0  0  0
   -1.7426    2.6832   -3.5843 O   0  0  0  0  0  0  0  0  0  0  0  0
   -0.7232    1.9468    1.2500 C   0  0  0  0  0  0  0  0  0  0  0  0
   -1.1640    1.1512    2.0453 O   0  0  0  0  0  0  0  0  0  0  0  0
    4.4320   -5.8975   -2.2091 H   0  0  0  0  0  0  0  0  0  0  0  0
    1.0932   -8.0117   -0.8244 H   0  0  0  0  0  0  0  0  0  0  0  0
    0.3652   -6.4973   -1.4117 H   0  0  0  0  0  0  0  0  0  0  0  0
   -0.3734   -6.5240    2.2433 H   0  0  0  0  0  0  0  0  0  0  0  0
   -1.0898   -6.6720    0.6206 H   0  0  0  0  0  0  0  0  0  0  0  0
    0.8704   -8.4120    3.2278 H   0  0  0  0  0  0  0  0  0  0  0  0
    0.0423  -14.9716    1.6411 H   0  0  0  0  0  0  0  0  0  0  0  0
   -0.7633  -15.1582    0.1786 H   0  0  0  0  0  0  0  0  0  0  0  0
   -1.8815   -9.9354   -1.7634 H   0  0  0  0  0  0  0  0  0  0  0  0
   -2.1718  -11.4956   -2.3148 H   0  0  0  0  0  0  0  0  0  0  0  0
    2.7878   -4.7533    1.8435 H   0  0  0  0  0  0  0  0  0  0  0  0
    2.7639   -2.2939    1.8629 H   0  0  0  0  0  0  0  0  0  0  0  0
   -0.7780   -2.3286   -0.5550 H   0  0  0  0  0  0  0  0  0  0  0  0
   -0.7309   -4.7878   -0.5690 H   0  0  0  0  0  0  0  0  0  0  0  0
   -0.6840   -0.4958   -0.4759 H   0  0  0  0  0  0  0  0  0  0  0  0
   -1.7507    1.5197   -1.2683 H   0  0  0  0  0  0  0  0  0  0  0  0
   -0.8503    3.0525   -1.1791 H   0  0  0  0  0  0  0  0  0  0  0  0
    1.0188    2.0283   -2.4463 H   0  0  0  0  0  0  0  0  0  0  0  0
    0.1184    0.4954   -2.5355 H   0  0  0  0  0  0  0  0  0  0  0  0
   -0.1973    1.8537   -4.9287 O   0  0  0  0  0  1  0  0  0  0  0  0
   -0.8617    3.2635    1.4708 O   0  0  0  0  0  1  0  0  0  0  0  0
  1  2  3  0  0  0  0
  1 36  1  0  0  0  0
  2  3  1  0  0  0  0
  3  4  1  0  0  0  0
  3 37  1  0  0  0  0
  3 38  1  0  0  0  0
  4  5  1  1  0  0  0
  4  6  1  0  0  0  0
  4 19  1  0  0  0  0
  6  7  1  0  0  0  0
  6 39  1  0  0  0  0
  6 40  1  0  0  0  0
  7 12  2  0  0  0  0
  7  8  1  0  0  0  0
  8  9  2  0  0  0  0
  8 41  1  0  0  0  0
  9 10  1  0  0  0  0
 10 16  2  0  0  0  0
 10 11  1  0  0  0  0
 11 12  1  0  0  0  0
 11 13  2  0  0  0  0
 13 14  1  0  0  0  0
 13 18  1  0  0  0  0
 14 15  2  0  0  0  0
 15 16  1  0  0  0  0
 15 17  1  0  0  0  0
 17 42  1  0  0  0  0
 17 43  1  0  0  0  0
 18 44  1  0  0  0  0
 18 45  1  0  0  0  0
 19 24  2  0  0  0  0
 19 20  1  0  0  0  0
 20 21  2  0  0  0  0
 20 46  1  0  0  0  0
 21 22  1  0  0  0  0
 21 47  1  0  0  0  0
 22 23  2  0  0  0  0
 22 25  1  0  0  0  0
 23 24  1  0  0  0  0
 23 48  1  0  0  0  0
 24 49  1  0  0  0  0
 25 26  2  0  0  0  0
 25 27  1  0  0  0  0
 27 28  1  0  0  0  0
 27 50  1  0  0  0  0
 28 29  1  6  0  0  0
 28 30  1  0  0  0  0
 28 34  1  0  0  0  0
 30 31  1  0  0  0  0
 30 51  1  0  0  0  0
 30 52  1  0  0  0  0
 31 32  1  0  0  0  0
 31 53  1  0  0  0  0
 31 54  1  0  0  0  0
 32 33  2  0  0  0  0
 32 55  1  0  0  0  0
 34 35  2  0  0  0  0
 34 56  1  0  0  0  0
M  END
$$$$
