ZINC00000196
 OpenBabel08292219463D

 47 48  0  0  1  0  0  0  0  0999 V2000
    0.8658   -0.3579   -0.9926 C   0  0  0  0  0  0  0  0  0  0  0  0
   -0.0116   -0.0050    0.1315 N   0  3  0  0  0  0  0  0  0  0  0  0
   -0.0443    1.4554    0.2873 C   0  0  0  0  0  0  0  0  0  0  0  0
   -1.3692   -0.4998   -0.1330 C   0  0  0  0  0  0  0  0  0  0  0  0
   -1.3615   -2.0297   -0.1430 C   0  0  0  0  0  0  0  0  0  0  0  0
   -1.0217   -2.5129    1.1582 O   0  0  0  0  0  0  0  0  0  0  0  0
   -0.9710   -3.8444    1.3197 C   0  0  0  0  0  0  0  0  0  0  0  0
   -1.2073   -4.5756    0.3872 O   0  0  0  0  0  0  0  0  0  0  0  0
   -0.6193   -4.4275    2.6641 C   0  0  2  0  0  0  0  0  0  0  0  0
    0.3739   -4.0885    2.9586 H   0  0  0  0  0  0  0  0  0  0  0  0
   -0.6315   -5.9320    2.5779 C   0  0  0  0  0  0  0  0  0  0  0  0
   -1.7891   -6.5941    2.2140 C   0  0  0  0  0  0  0  0  0  0  0  0
   -1.8003   -7.9741    2.1349 C   0  0  0  0  0  0  0  0  0  0  0  0
   -0.6538   -8.6920    2.4193 C   0  0  0  0  0  0  0  0  0  0  0  0
    0.5041   -8.0299    2.7823 C   0  0  0  0  0  0  0  0  0  0  0  0
    0.5165   -6.6496    2.8572 C   0  0  0  0  0  0  0  0  0  0  0  0
   -1.6440   -3.9679    3.7032 C   0  0  0  0  0  0  0  0  0  0  0  0
   -1.2330   -4.4455    5.1181 C   0  0  0  0  0  0  0  0  0  0  0  0
   -1.9615   -3.4396    6.0435 C   0  0  0  0  0  0  0  0  0  0  0  0
   -1.8529   -2.0931    5.2986 C   0  0  0  0  0  0  0  0  0  0  0  0
   -1.6511   -2.4290    3.8105 C   0  0  0  0  0  0  0  0  0  0  0  0
   -2.9461   -4.4518    3.3678 O   0  0  0  0  0  0  0  0  0  0  0  0
    1.8732    0.0092   -0.7964 H   0  0  0  0  0  0  0  0  0  0  0  0
    0.8901   -1.4415   -1.1082 H   0  0  0  0  0  0  0  0  0  0  0  0
    0.4852    0.0966   -1.9073 H   0  0  0  0  0  0  0  0  0  0  0  0
   -0.4426    1.9088   -0.6204 H   0  0  0  0  0  0  0  0  0  0  0  0
   -0.6804    1.7163    1.1331 H   0  0  0  0  0  0  0  0  0  0  0  0
    0.9658    1.8245    0.4649 H   0  0  0  0  0  0  0  0  0  0  0  0
   -2.0435   -0.1449    0.6464 H   0  0  0  0  0  0  0  0  0  0  0  0
   -1.7078   -0.1318   -1.1015 H   0  0  0  0  0  0  0  0  0  0  0  0
   -2.3500   -2.3962   -0.4200 H   0  0  0  0  0  0  0  0  0  0  0  0
   -0.6268   -2.3846   -0.8657 H   0  0  0  0  0  0  0  0  0  0  0  0
   -2.6849   -6.0332    1.9918 H   0  0  0  0  0  0  0  0  0  0  0  0
   -2.7049   -8.4914    1.8513 H   0  0  0  0  0  0  0  0  0  0  0  0
   -0.6627   -9.7703    2.3582 H   0  0  0  0  0  0  0  0  0  0  0  0
    1.3998   -8.5908    3.0048 H   0  0  0  0  0  0  0  0  0  0  0  0
    1.4221   -6.1321    3.1372 H   0  0  0  0  0  0  0  0  0  0  0  0
   -1.5835   -5.4615    5.2999 H   0  0  0  0  0  0  0  0  0  0  0  0
   -0.1530   -4.3791    5.2496 H   0  0  0  0  0  0  0  0  0  0  0  0
   -3.0065   -3.7236    6.1679 H   0  0  0  0  0  0  0  0  0  0  0  0
   -1.4632   -3.3815    7.0112 H   0  0  0  0  0  0  0  0  0  0  0  0
   -2.7696   -1.5184    5.4306 H   0  0  0  0  0  0  0  0  0  0  0  0
   -0.9998   -1.5272    5.6727 H   0  0  0  0  0  0  0  0  0  0  0  0
   -0.6999   -2.0261    3.4625 H   0  0  0  0  0  0  0  0  0  0  0  0
   -2.4698   -2.0173    3.2204 H   0  0  0  0  0  0  0  0  0  0  0  0
   -3.6360   -4.1903    3.9929 H   0  0  0  0  0  0  0  0  0  0  0  0
    0.3407   -0.4258    0.9782 H   0  0  0  0  0  0  0  0  0  0  0  0
  1  2  1  0  0  0  0
  1 23  1  0  0  0  0
  1 24  1  0  0  0  0
  1 25  1  0  0  0  0
  2  3  1  0  0  0  0
  2  4  1  0  0  0  0
  2 47  1  0  0  0  0
  3 26  1  0  0  0  0
  3 27  1  0  0  0  0
  3 28  1  0  0  0  0
  4  5  1  0  0  0  0
  4 29  1  0  0  0  0
  4 30  1  0  0  0  0
  5  6  1  0  0  0  0
  5 31  1  0  0  0  0
  5 32  1  0  0  0  0
  6  7  1  0  0  0  0
  7  8  2  0  0  0  0
  7  9  1  0  0  0  0
  9 10  1  1  0  0  0
  9 11  1  0  0  0  0
  9 17  1  0  0  0  0
 11 16  2  0  0  0  0
 11 12  1  0  0  0  0
 12 13  2  0  0  0  0
 12 33  1  0  0  0  0
 13 14  1  0  0  0  0
 13 34  1  0  0  0  0
 14 15  2  0  0  0  0
 14 35  1  0  0  0  0
 15 16  1  0  0  0  0
 15 36  1  0  0  0  0
 16 37  1  0  0  0  0
 17 21  1  0  0  0  0
 17 18  1  0  0  0  0
 17 22  1  0  0  0  0
 18 19  1  0  0  0  0
 18 38  1  0  0  0  0
 18 39  1  0  0  0  0
 19 20  1  0  0  0  0
 19 40  1  0  0  0  0
 19 41  1  0  0  0  0
 20 21  1  0  0  0  0
 20 42  1  0  0  0  0
 20 43  1  0  0  0  0
 21 44  1  0  0  0  0
 21 45  1  0  0  0  0
 22 46  1  0  0  0  0
M  CHG  1   2   1
M  END
$$$$
