ZINC00057524
 OpenBabel08292219463D

 42 43  0  0  0  0  0  0  0  0999 V2000
   -0.0178    1.4648    0.0101 C   0  0  0  0  0  0  0  0  0  0  0  0
    0.0021   -0.0041    0.0020 N   0  3  0  0  0  0  0  0  0  0  0  0
    0.7126   -0.4907    1.1921 C   0  0  0  0  0  0  0  0  0  0  0  0
   -1.3761   -0.5125    0.0124 C   0  0  0  0  0  0  0  0  0  0  0  0
   -1.3584   -2.0365   -0.1216 C   0  0  0  0  0  0  0  0  0  0  0  0
   -2.7328   -2.5436   -0.1112 N   0  0  0  0  0  0  0  0  0  0  0  0
   -3.4704   -2.6866   -1.3689 C   0  0  0  0  0  0  0  0  0  0  0  0
   -3.2346   -4.0629   -1.9358 C   0  0  0  0  0  0  0  0  0  0  0  0
   -2.1742   -4.2844   -2.7946 C   0  0  0  0  0  0  0  0  0  0  0  0
   -1.9580   -5.5468   -3.3146 C   0  0  0  0  0  0  0  0  0  0  0  0
   -2.8018   -6.5879   -2.9755 C   0  0  0  0  0  0  0  0  0  0  0  0
   -3.8617   -6.3666   -2.1160 C   0  0  0  0  0  0  0  0  0  0  0  0
   -4.0754   -5.1051   -1.5926 C   0  0  0  0  0  0  0  0  0  0  0  0
   -3.3371   -2.8891    1.0919 C   0  0  0  0  0  3  0  0  0  0  0  0
   -2.6330   -2.7454    2.2834 C   0  0  0  0  0  0  0  0  0  0  0  0
   -3.2463   -3.0929    3.4732 C   0  0  0  0  0  0  0  0  0  0  0  0
   -4.5484   -3.5743    3.4318 C   0  0  0  0  0  0  0  0  0  0  0  0
   -5.1876   -3.6911    2.2141 C   0  0  0  0  0  0  0  0  0  0  0  0
   -4.5795   -3.3467    1.0946 N   0  0  0  0  0  0  0  0  0  0  0  0
    1.0047    1.8421    0.0024 H   0  0  0  0  0  0  0  0  0  0  0  0
   -0.5450    1.8259   -0.8730 H   0  0  0  0  0  0  0  0  0  0  0  0
   -0.5280    1.8163    0.9069 H   0  0  0  0  0  0  0  0  0  0  0  0
    0.7273   -1.5806    1.1861 H   0  0  0  0  0  0  0  0  0  0  0  0
    1.7352   -0.1134    1.1844 H   0  0  0  0  0  0  0  0  0  0  0  0
    0.2024   -0.1392    2.0889 H   0  0  0  0  0  0  0  0  0  0  0  0
   -1.8584   -0.2358    0.9500 H   0  0  0  0  0  0  0  0  0  0  0  0
   -1.9290   -0.0808   -0.8218 H   0  0  0  0  0  0  0  0  0  0  0  0
   -0.8762   -2.3132   -1.0592 H   0  0  0  0  0  0  0  0  0  0  0  0
   -0.8055   -2.4683    0.7126 H   0  0  0  0  0  0  0  0  0  0  0  0
   -4.5354   -2.5477   -1.1834 H   0  0  0  0  0  0  0  0  0  0  0  0
   -3.1246   -1.9366   -2.0802 H   0  0  0  0  0  0  0  0  0  0  0  0
   -1.5149   -3.4710   -3.0595 H   0  0  0  0  0  0  0  0  0  0  0  0
   -1.1299   -5.7197   -3.9860 H   0  0  0  0  0  0  0  0  0  0  0  0
   -2.6333   -7.5740   -3.3823 H   0  0  0  0  0  0  0  0  0  0  0  0
   -4.5211   -7.1799   -1.8514 H   0  0  0  0  0  0  0  0  0  0  0  0
   -4.9012   -4.9331   -0.9182 H   0  0  0  0  0  0  0  0  0  0  0  0
   -1.6210   -2.3681    2.2790 H   0  0  0  0  0  0  0  0  0  0  0  0
   -2.7244   -2.9926    4.4134 H   0  0  0  0  0  0  0  0  0  0  0  0
   -5.0555   -3.8548    4.3431 H   0  0  0  0  0  0  0  0  0  0  0  0
   -6.2001   -4.0653    2.1773 H   0  0  0  0  0  0  0  0  0  0  0  0
   -5.0529   -3.4350    0.2526 H   0  0  0  0  0  0  0  0  0  0  0  0
    0.4744   -0.3295   -0.8281 H   0  0  0  0  0  0  0  0  0  0  0  0
  1  2  1  0  0  0  0
  1 20  1  0  0  0  0
  1 21  1  0  0  0  0
  1 22  1  0  0  0  0
  2  3  1  0  0  0  0
  2  4  1  0  0  0  0
  2 42  1  0  0  0  0
  3 23  1  0  0  0  0
  3 24  1  0  0  0  0
  3 25  1  0  0  0  0
  4  5  1  0  0  0  0
  4 26  1  0  0  0  0
  4 27  1  0  0  0  0
  5  6  1  0  0  0  0
  5 28  1  0  0  0  0
  5 29  1  0  0  0  0
  6  7  1  0  0  0  0
  6 14  1  0  0  0  0
  7  8  1  0  0  0  0
  7 30  1  0  0  0  0
  7 31  1  0  0  0  0
  8 13  2  0  0  0  0
  8  9  1  0  0  0  0
  9 10  2  0  0  0  0
  9 32  1  0  0  0  0
 10 11  1  0  0  0  0
 10 33  1  0  0  0  0
 11 12  2  0  0  0  0
 11 34  1  0  0  0  0
 12 13  1  0  0  0  0
 12 35  1  0  0  0  0
 13 36  1  0  0  0  0
 14 19  1  0  0  0  0
 14 15  1  0  0  0  0
 15 16  2  0  0  0  0
 15 37  1  0  0  0  0
 16 17  1  0  0  0  0
 16 38  1  0  0  0  0
 17 18  2  0  0  0  0
 17 39  1  0  0  0  0
 18 19  1  0  0  0  0
 18 40  1  0  0  0  0
 19 41  1  0  0  0  0
M  CHG  1   2   1
M  END
$$$$
