ZINC03830579
 OpenBabel08292219463D

 52 55  0  0  1  0  0  0  0  0999 V2000
   -1.6129    0.1752    0.6734 C   0  0  0  0  0  0  0  0  0  0  0  0
   -1.4850   -1.2489    0.3364 N   0  3  2  0  0  0  0  0  0  0  0  0
   -2.7823   -1.7295   -0.1450 C   0  0  0  0  0  0  0  0  0  0  0  0
   -2.6880   -3.2118   -0.5138 C   0  0  0  0  0  0  0  0  0  0  0  0
   -1.2560   -3.6967   -0.2522 C   0  0  2  0  0  0  0  0  0  0  0  0
   -0.9301   -3.4664    1.2293 C   0  0  0  0  0  0  0  0  0  0  0  0
   -1.0807   -1.9760    1.5421 C   0  0  0  0  0  0  0  0  0  0  0  0
   -0.2963   -2.8479   -1.0965 C   0  0  2  0  0  0  0  0  0  0  0  0
    0.7308   -3.1591   -0.9057 H   0  0  0  0  0  0  0  0  0  0  0  0
   -0.4727   -1.3877   -0.7132 C   0  0  0  0  0  0  0  0  0  0  0  0
   -0.5988   -3.0188   -2.4826 O   0  0  0  0  0  0  0  0  0  0  0  0
    0.4201   -2.8984   -3.3481 C   0  0  0  0  0  0  0  0  0  0  0  0
    1.5321   -2.6560   -2.9422 O   0  0  0  0  0  0  0  0  0  0  0  0
    0.1772   -3.0656   -4.8259 C   0  0  0  0  0  0  0  0  0  0  0  0
   -0.2845   -1.7556   -5.4105 C   0  0  0  0  0  0  0  0  0  0  0  0
    0.2952   -0.5712   -4.9958 C   0  0  0  0  0  0  0  0  0  0  0  0
   -0.1282    0.6305   -5.5320 C   0  0  0  0  0  0  0  0  0  0  0  0
   -1.1311    0.6478   -6.4832 C   0  0  0  0  0  0  0  0  0  0  0  0
   -1.7102   -0.5367   -6.8986 C   0  0  0  0  0  0  0  0  0  0  0  0
   -1.2838   -1.7388   -6.3655 C   0  0  0  0  0  0  0  0  0  0  0  0
    1.4553   -3.4938   -5.4998 C   0  0  0  0  0  0  0  0  0  0  0  0
    1.5419   -4.7416   -6.0883 C   0  0  0  0  0  0  0  0  0  0  0  0
    2.7143   -5.1344   -6.7064 C   0  0  0  0  0  0  0  0  0  0  0  0
    3.7999   -4.2791   -6.7365 C   0  0  0  0  0  0  0  0  0  0  0  0
    3.7130   -3.0309   -6.1489 C   0  0  0  0  0  0  0  0  0  0  0  0
    2.5392   -2.6365   -5.5345 C   0  0  0  0  0  0  0  0  0  0  0  0
   -0.8274   -4.0604   -5.0340 O   0  0  0  0  0  0  0  0  0  0  0  0
   -0.6545    0.5513    1.0314 H   0  0  0  0  0  0  0  0  0  0  0  0
   -1.9136    0.7329   -0.2135 H   0  0  0  0  0  0  0  0  0  0  0  0
   -2.3653    0.2981    1.4523 H   0  0  0  0  0  0  0  0  0  0  0  0
   -3.5296   -1.5983    0.6375 H   0  0  0  0  0  0  0  0  0  0  0  0
   -3.0769   -1.1562   -1.0239 H   0  0  0  0  0  0  0  0  0  0  0  0
   -3.3852   -3.7852    0.0972 H   0  0  0  0  0  0  0  0  0  0  0  0
   -2.9309   -3.3420   -1.5683 H   0  0  0  0  0  0  0  0  0  0  0  0
   -1.1645   -4.7545   -0.4991 H   0  0  0  0  0  0  0  0  0  0  0  0
   -1.6189   -4.0411    1.8484 H   0  0  0  0  0  0  0  0  0  0  0  0
    0.0941   -3.7803    1.4310 H   0  0  0  0  0  0  0  0  0  0  0  0
   -0.1287   -1.5833    1.8991 H   0  0  0  0  0  0  0  0  0  0  0  0
   -1.8376   -1.8434    2.3152 H   0  0  0  0  0  0  0  0  0  0  0  0
   -0.7793   -0.8160   -1.5892 H   0  0  0  0  0  0  0  0  0  0  0  0
    0.4807   -1.0049   -0.3491 H   0  0  0  0  0  0  0  0  0  0  0  0
    1.0788   -0.5846   -4.2526 H   0  0  0  0  0  0  0  0  0  0  0  0
    0.3242    1.5559   -5.2075 H   0  0  0  0  0  0  0  0  0  0  0  0
   -1.4624    1.5867   -6.9016 H   0  0  0  0  0  0  0  0  0  0  0  0
   -2.4940   -0.5232   -7.6415 H   0  0  0  0  0  0  0  0  0  0  0  0
   -1.7336   -2.6645   -6.6927 H   0  0  0  0  0  0  0  0  0  0  0  0
    0.6938   -5.4098   -6.0648 H   0  0  0  0  0  0  0  0  0  0  0  0
    2.7823   -6.1095   -7.1656 H   0  0  0  0  0  0  0  0  0  0  0  0
    4.7161   -4.5862   -7.2189 H   0  0  0  0  0  0  0  0  0  0  0  0
    4.5612   -2.3628   -6.1721 H   0  0  0  0  0  0  0  0  0  0  0  0
    2.4700   -1.6599   -5.0786 H   0  0  0  0  0  0  0  0  0  0  0  0
   -0.5973   -4.9313   -4.6823 H   0  0  0  0  0  0  0  0  0  0  0  0
  1 28  1  0  0  0  0
  1 29  1  0  0  0  0
  1 30  1  0  0  0  0
  2  1  1  1  0  0  0
  2  7  1  0  0  0  0
  2 10  1  0  0  0  0
  2  3  1  0  0  0  0
  3  4  1  0  0  0  0
  3 31  1  0  0  0  0
  3 32  1  0  0  0  0
  4  5  1  0  0  0  0
  4 33  1  0  0  0  0
  4 34  1  0  0  0  0
  5  6  1  0  0  0  0
  5  8  1  0  0  0  0
  5 35  1  6  0  0  0
  6  7  1  0  0  0  0
  6 36  1  0  0  0  0
  6 37  1  0  0  0  0
  7 38  1  0  0  0  0
  7 39  1  0  0  0  0
  8  9  1  1  0  0  0
  8 10  1  0  0  0  0
  8 11  1  0  0  0  0
 10 40  1  0  0  0  0
 10 41  1  0  0  0  0
 11 12  1  0  0  0  0
 12 13  2  0  0  0  0
 12 14  1  0  0  0  0
 14 15  1  0  0  0  0
 14 21  1  0  0  0  0
 14 27  1  0  0  0  0
 15 20  2  0  0  0  0
 15 16  1  0  0  0  0
 16 17  2  0  0  0  0
 16 42  1  0  0  0  0
 17 18  1  0  0  0  0
 17 43  1  0  0  0  0
 18 19  2  0  0  0  0
 18 44  1  0  0  0  0
 19 20  1  0  0  0  0
 19 45  1  0  0  0  0
 20 46  1  0  0  0  0
 21 26  2  0  0  0  0
 21 22  1  0  0  0  0
 22 23  2  0  0  0  0
 22 47  1  0  0  0  0
 23 24  1  0  0  0  0
 23 48  1  0  0  0  0
 24 25  2  0  0  0  0
 24 49  1  0  0  0  0
 25 26  1  0  0  0  0
 25 50  1  0  0  0  0
 26 51  1  0  0  0  0
 27 52  1  0  0  0  0
M  CHG  1   2   1
M  END
$$$$
