ZINC00056651
 OpenBabel08292219463D

 47 49  0  0  1  0  0  0  0  0999 V2000
    1.1666    0.9115   -2.7285 C   0  0  0  0  0  0  0  0  0  0  0  0
    0.5062   -0.4267   -2.3911 C   0  0  0  0  0  0  0  0  0  0  0  0
    1.0642   -0.9452   -1.1350 N   0  3  0  0  0  0  0  0  0  0  0  0
    0.6710   -0.0670   -0.0251 C   0  0  0  0  0  0  0  0  0  0  0  0
    1.3831   -0.5116    1.2540 C   0  0  0  0  0  0  0  0  0  0  0  0
    0.5503   -2.3000   -0.8933 C   0  0  2  0  0  0  0  0  0  0  0  0
    0.6745   -2.5532    0.1596 H   0  0  0  0  0  0  0  0  0  0  0  0
    1.3252   -3.3004   -1.7533 C   0  0  0  0  0  0  0  0  0  0  0  0
   -0.9342   -2.3552   -1.2593 C   0  0  0  0  0  0  0  0  0  0  0  0
   -1.7069   -1.5824   -0.2836 N   0  0  0  0  0  0  0  0  0  0  0  0
   -1.7847   -2.0387    1.0366 C   0  0  0  0  0  0  0  0  0  0  0  0
   -1.8783   -3.3957    1.3033 C   0  0  0  0  0  0  0  0  0  0  0  0
   -1.9567   -3.8394    2.6119 C   0  0  0  0  0  0  0  0  0  0  0  0
   -1.9425   -2.9379    3.6590 C   0  0  0  0  0  0  0  0  0  0  0  0
   -1.8491   -1.5794    3.4040 C   0  0  0  0  0  0  0  0  0  0  0  0
   -1.7704   -1.1314    2.0992 C   0  0  0  0  0  0  0  0  0  0  0  0
   -1.6508    0.5938    1.7422 S   0  0  0  0  0  0  0  0  0  0  0  0
   -2.4017    0.7016    0.1476 C   0  0  0  0  0  0  0  0  0  0  0  0
   -2.3413   -0.4060   -0.6971 C   0  0  0  0  0  0  0  0  0  0  0  0
   -2.9232   -0.3294   -1.9528 C   0  0  0  0  0  0  0  0  0  0  0  0
   -3.5509    0.8370   -2.3540 C   0  0  0  0  0  0  0  0  0  0  0  0
   -3.6027    1.9301   -1.5104 C   0  0  0  0  0  0  0  0  0  0  0  0
   -3.0339    1.8610   -0.2590 C   0  0  0  0  0  0  0  0  0  0  0  0
    0.9764    1.6233   -1.9252 H   0  0  0  0  0  0  0  0  0  0  0  0
    2.2414    0.7683   -2.8402 H   0  0  0  0  0  0  0  0  0  0  0  0
    0.7525    1.2963   -3.6605 H   0  0  0  0  0  0  0  0  0  0  0  0
   -0.5686   -0.2835   -2.2794 H   0  0  0  0  0  0  0  0  0  0  0  0
    0.6964   -1.1385   -3.1943 H   0  0  0  0  0  0  0  0  0  0  0  0
    0.9504    0.9605   -0.2581 H   0  0  0  0  0  0  0  0  0  0  0  0
   -0.4077   -0.1261    0.1203 H   0  0  0  0  0  0  0  0  0  0  0  0
    1.1698    0.1974    2.0539 H   0  0  0  0  0  0  0  0  0  0  0  0
    1.0287   -1.5014    1.5419 H   0  0  0  0  0  0  0  0  0  0  0  0
    2.4581   -0.5477    1.0776 H   0  0  0  0  0  0  0  0  0  0  0  0
    1.2719   -2.9983   -2.7992 H   0  0  0  0  0  0  0  0  0  0  0  0
    2.3672   -3.3231   -1.4343 H   0  0  0  0  0  0  0  0  0  0  0  0
    0.8885   -4.2926   -1.6390 H   0  0  0  0  0  0  0  0  0  0  0  0
   -1.0791   -1.9331   -2.2538 H   0  0  0  0  0  0  0  0  0  0  0  0
   -1.2721   -3.3915   -1.2517 H   0  0  0  0  0  0  0  0  0  0  0  0
   -1.8905   -4.1064    0.4902 H   0  0  0  0  0  0  0  0  0  0  0  0
   -2.0297   -4.8974    2.8160 H   0  0  0  0  0  0  0  0  0  0  0  0
   -2.0048   -3.2927    4.6771 H   0  0  0  0  0  0  0  0  0  0  0  0
   -1.8381   -0.8736    4.2214 H   0  0  0  0  0  0  0  0  0  0  0  0
   -2.8865   -1.1794   -2.6180 H   0  0  0  0  0  0  0  0  0  0  0  0
   -4.0030    0.8934   -3.3333 H   0  0  0  0  0  0  0  0  0  0  0  0
   -4.0949    2.8363   -1.8312 H   0  0  0  0  0  0  0  0  0  0  0  0
   -3.0748    2.7160    0.3995 H   0  0  0  0  0  0  0  0  0  0  0  0
    2.0707   -0.9741   -1.2007 H   0  0  0  0  0  0  0  0  0  0  0  0
  1  2  1  0  0  0  0
  1 24  1  0  0  0  0
  1 25  1  0  0  0  0
  1 26  1  0  0  0  0
  2  3  1  0  0  0  0
  2 27  1  0  0  0  0
  2 28  1  0  0  0  0
  3  4  1  0  0  0  0
  3  6  1  0  0  0  0
  3 47  1  0  0  0  0
  4  5  1  0  0  0  0
  4 29  1  0  0  0  0
  4 30  1  0  0  0  0
  5 31  1  0  0  0  0
  5 32  1  0  0  0  0
  5 33  1  0  0  0  0
  6  7  1  1  0  0  0
  6  8  1  0  0  0  0
  6  9  1  0  0  0  0
  8 34  1  0  0  0  0
  8 35  1  0  0  0  0
  8 36  1  0  0  0  0
  9 10  1  0  0  0  0
  9 37  1  0  0  0  0
  9 38  1  0  0  0  0
 10 19  1  0  0  0  0
 10 11  1  0  0  0  0
 11 16  2  0  0  0  0
 11 12  1  0  0  0  0
 12 13  2  0  0  0  0
 12 39  1  0  0  0  0
 13 14  1  0  0  0  0
 13 40  1  0  0  0  0
 14 15  2  0  0  0  0
 14 41  1  0  0  0  0
 15 16  1  0  0  0  0
 15 42  1  0  0  0  0
 16 17  1  0  0  0  0
 17 18  1  0  0  0  0
 18 23  2  0  0  0  0
 18 19  1  0  0  0  0
 19 20  2  0  0  0  0
 20 21  1  0  0  0  0
 20 43  1  0  0  0  0
 21 22  2  0  0  0  0
 21 44  1  0  0  0  0
 22 23  1  0  0  0  0
 22 45  1  0  0  0  0
 23 46  1  0  0  0  0
M  CHG  1   3   1
M  END
$$$$
