ZINC00005560
 OpenBabel08292219463D

 32 33  0  0  1  0  0  0  0  0999 V2000
    0.1837    2.1782   -0.7349 C   0  0  0  0  0  0  0  0  0  0  0  0
   -0.1197    0.6957   -0.5090 C   0  0  1  0  0  0  0  0  0  0  0  0
   -1.1874    0.5193   -0.6394 H   0  0  0  0  0  0  0  0  0  0  0  0
    0.6514   -0.1323   -1.5045 C   0  0  0  0  0  0  0  0  0  0  0  0
    2.0343   -0.0771   -1.5244 C   0  0  0  0  0  0  0  0  0  0  0  0
    2.7503   -0.8339   -2.4350 C   0  0  0  0  0  0  0  0  0  0  0  0
    2.0894   -1.6493   -3.3300 C   0  0  0  0  0  0  0  0  0  0  0  0
    0.6941   -1.7103   -3.3152 C   0  0  0  0  0  0  0  0  0  0  0  0
   -0.0221   -0.9474   -2.3896 C   0  0  0  0  0  0  0  0  0  0  0  0
   -0.0208   -2.5813   -4.2707 C   0  0  0  0  0  0  0  0  0  0  0  0
    0.6029   -3.3486   -4.9776 O   0  0  0  0  0  0  0  0  0  0  0  0
   -1.4938   -2.5197   -4.3670 C   0  0  0  0  0  0  0  0  0  0  0  0
   -2.1594   -1.3068   -4.1748 C   0  0  0  0  0  0  0  0  0  0  0  0
   -3.5346   -1.2565   -4.2666 C   0  0  0  0  0  0  0  0  0  0  0  0
   -4.2550   -2.4041   -4.5480 C   0  0  0  0  0  0  0  0  0  0  0  0
   -3.6022   -3.6092   -4.7395 C   0  0  0  0  0  0  0  0  0  0  0  0
   -2.2269   -3.6730   -4.6564 C   0  0  0  0  0  0  0  0  0  0  0  0
    0.2866    0.3072    0.8893 C   0  0  0  0  0  0  0  0  0  0  0  0
   -0.2228    0.8616    1.8483 O   0  0  0  0  0  0  0  0  0  0  0  0
    1.1246   -0.5615    1.0615 O   0  0  0  0  0  1  0  0  0  0  0  0
    1.2515    2.3545   -0.6046 H   0  0  0  0  0  0  0  0  0  0  0  0
   -0.1101    2.4592   -1.7463 H   0  0  0  0  0  0  0  0  0  0  0  0
   -0.3740    2.7770   -0.0149 H   0  0  0  0  0  0  0  0  0  0  0  0
    2.5569    0.5599   -0.8262 H   0  0  0  0  0  0  0  0  0  0  0  0
    3.8292   -0.7857   -2.4452 H   0  0  0  0  0  0  0  0  0  0  0  0
    2.6494   -2.2389   -4.0406 H   0  0  0  0  0  0  0  0  0  0  0  0
   -1.1010   -0.9929   -2.3700 H   0  0  0  0  0  0  0  0  0  0  0  0
   -1.5985   -0.4106   -3.9544 H   0  0  0  0  0  0  0  0  0  0  0  0
   -4.0505   -0.3193   -4.1182 H   0  0  0  0  0  0  0  0  0  0  0  0
   -5.3318   -2.3591   -4.6180 H   0  0  0  0  0  0  0  0  0  0  0  0
   -4.1706   -4.5010   -4.9585 H   0  0  0  0  0  0  0  0  0  0  0  0
   -1.7183   -4.6132   -4.8105 H   0  0  0  0  0  0  0  0  0  0  0  0
  1  2  1  0  0  0  0
  1 21  1  0  0  0  0
  1 22  1  0  0  0  0
  1 23  1  0  0  0  0
  2  3  1  6  0  0  0
  2  4  1  0  0  0  0
  2 18  1  0  0  0  0
  4  9  2  0  0  0  0
  4  5  1  0  0  0  0
  5  6  2  0  0  0  0
  5 24  1  0  0  0  0
  6  7  1  0  0  0  0
  6 25  1  0  0  0  0
  7  8  2  0  0  0  0
  7 26  1  0  0  0  0
  8  9  1  0  0  0  0
  8 10  1  0  0  0  0
  9 27  1  0  0  0  0
 10 11  2  0  0  0  0
 10 12  1  0  0  0  0
 12 17  2  0  0  0  0
 12 13  1  0  0  0  0
 13 14  2  0  0  0  0
 13 28  1  0  0  0  0
 14 15  1  0  0  0  0
 14 29  1  0  0  0  0
 15 16  2  0  0  0  0
 15 30  1  0  0  0  0
 16 17  1  0  0  0  0
 16 31  1  0  0  0  0
 17 32  1  0  0  0  0
 18 19  2  0  0  0  0
 18 20  1  0  0  0  0
M  END
$$$$
