ZINC00113355
 OpenBabel08292219463D

 26 26  0  0  1  0  0  0  0  0999 V2000
   -0.0178    1.4648    0.0101 C   0  0  0  0  0  0  0  0  0  0  0  0
    0.0021   -0.0041    0.0020 N   0  3  0  0  0  0  0  0  0  0  0  0
   -1.3761   -0.5125    0.0124 C   0  0  0  0  0  0  0  0  0  0  0  0
   -1.3553   -2.0424    0.0040 C   0  0  1  0  0  0  0  0  0  0  0  0
   -0.8281   -2.4035    0.8871 H   0  0  0  0  0  0  0  0  0  0  0  0
   -2.7691   -2.5640    0.0147 C   0  0  0  0  0  0  0  0  0  0  0  0
   -3.4628   -2.7041   -1.1733 C   0  0  0  0  0  0  0  0  0  0  0  0
   -4.7599   -3.1823   -1.1669 C   0  0  0  0  0  0  0  0  0  0  0  0
   -5.3666   -3.5211    0.0273 C   0  0  0  0  0  0  0  0  0  0  0  0
   -4.6729   -3.3815    1.2204 C   0  0  0  0  0  0  0  0  0  0  0  0
   -3.3690   -2.9071    1.2106 C   0  0  0  0  0  0  0  0  0  0  0  0
   -5.2674   -3.7142    2.3963 O   0  0  0  0  0  0  0  0  0  0  0  0
   -0.6865   -2.5032   -1.1717 O   0  0  0  0  0  0  0  0  0  0  0  0
    1.0047    1.8421    0.0024 H   0  0  0  0  0  0  0  0  0  0  0  0
   -0.5450    1.8259   -0.8730 H   0  0  0  0  0  0  0  0  0  0  0  0
   -0.5280    1.8163    0.9069 H   0  0  0  0  0  0  0  0  0  0  0  0
    0.4744   -0.3295   -0.8281 H   0  0  0  0  0  0  0  0  0  0  0  0
   -1.8863   -0.1610    0.9092 H   0  0  0  0  0  0  0  0  0  0  0  0
   -1.9033   -0.1515   -0.8706 H   0  0  0  0  0  0  0  0  0  0  0  0
   -2.9906   -2.4391   -2.1078 H   0  0  0  0  0  0  0  0  0  0  0  0
   -5.2996   -3.2908   -2.0961 H   0  0  0  0  0  0  0  0  0  0  0  0
   -6.3801   -3.8940    0.0319 H   0  0  0  0  0  0  0  0  0  0  0  0
   -2.8252   -2.8020    2.1378 H   0  0  0  0  0  0  0  0  0  0  0  0
   -5.1357   -4.6361    2.6566 H   0  0  0  0  0  0  0  0  0  0  0  0
   -1.1017   -2.2189   -1.9974 H   0  0  0  0  0  0  0  0  0  0  0  0
    0.4901   -0.3383    0.8195 H   0  0  0  0  0  0  0  0  0  0  0  0
  1  2  1  0  0  0  0
  1 14  1  0  0  0  0
  1 15  1  0  0  0  0
  1 16  1  0  0  0  0
  2  3  1  0  0  0  0
  2 17  1  0  0  0  0
  2 26  1  0  0  0  0
  3  4  1  0  0  0  0
  3 18  1  0  0  0  0
  3 19  1  0  0  0  0
  4  5  1  1  0  0  0
  4  6  1  0  0  0  0
  4 13  1  0  0  0  0
  6 11  2  0  0  0  0
  6  7  1  0  0  0  0
  7  8  2  0  0  0  0
  7 20  1  0  0  0  0
  8  9  1  0  0  0  0
  8 21  1  0  0  0  0
  9 10  2  0  0  0  0
  9 22  1  0  0  0  0
 10 11  1  0  0  0  0
 10 12  1  0  0  0  0
 11 23  1  0  0  0  0
 12 24  1  0  0  0  0
 13 25  1  0  0  0  0
M  CHG  1   2   1
M  END
$$$$
