ZINC04632106
 OpenBabel08292219463D

 32 33  0  0  1  0  0  0  0  0999 V2000
   -0.0057    1.2795   -0.1859 C   0  0  0  0  0  0  0  0  0  0  0  0
   -0.0179   -0.2249   -0.0982 C   0  0  0  0  0  0  0  0  0  0  0  0
   -0.0456   -0.9845   -1.2530 C   0  0  0  0  0  0  0  0  0  0  0  0
   -0.0568   -2.3642   -1.1726 C   0  0  0  0  0  0  0  0  0  0  0  0
   -0.0399   -2.9848    0.0628 C   0  0  0  0  0  0  0  0  0  0  0  0
   -0.0113   -2.2254    1.2173 C   0  0  0  0  0  0  0  0  0  0  0  0
    0.0043   -0.8453    1.1367 C   0  0  0  0  0  0  0  0  0  0  0  0
    0.0407   -0.0174    2.3954 C   0  0  0  0  0  0  0  0  0  0  0  0
    0.0067   -2.9019    2.5638 C   0  0  2  0  0  0  0  0  0  0  0  0
    0.1440   -2.1536    3.3445 H   0  0  0  0  0  0  0  0  0  0  0  0
    1.1582   -3.9081    2.6137 C   0  0  0  0  0  0  0  0  0  0  0  0
   -1.2992   -3.6216    2.7819 C   0  0  0  0  0  0  0  0  0  0  0  0
   -2.0104   -4.2730    1.8419 C   0  0  0  0  0  0  0  0  0  0  0  0
   -3.1199   -4.7784    2.4642 N   0  0  0  0  0  0  0  0  0  0  0  0
   -3.8259   -5.2983    2.0492 H   0  0  0  0  0  0  0  0  0  0  0  0
   -3.0481   -4.4180    3.7637 C   0  0  0  0  0  0  0  0  0  0  0  0
   -1.9540   -3.7307    3.9474 N   0  0  0  0  0  4  0  0  0  0  0  0
    1.0246    1.6325   -0.2304 H   0  0  0  0  0  0  0  0  0  0  0  0
   -0.5371    1.5955   -1.0836 H   0  0  0  0  0  0  0  0  0  0  0  0
   -0.4958    1.6987    0.6929 H   0  0  0  0  0  0  0  0  0  0  0  0
   -0.0588   -0.4997   -2.2180 H   0  0  0  0  0  0  0  0  0  0  0  0
   -0.0791   -2.9576   -2.0747 H   0  0  0  0  0  0  0  0  0  0  0  0
   -0.0493   -4.0629    0.1257 H   0  0  0  0  0  0  0  0  0  0  0  0
   -0.9717    0.1024    2.7810 H   0  0  0  0  0  0  0  0  0  0  0  0
    0.6570   -0.5183    3.1420 H   0  0  0  0  0  0  0  0  0  0  0  0
    0.4634    0.9626    2.1736 H   0  0  0  0  0  0  0  0  0  0  0  0
    2.1027   -3.3875    2.4560 H   0  0  0  0  0  0  0  0  0  0  0  0
    1.1712   -4.3974    3.5877 H   0  0  0  0  0  0  0  0  0  0  0  0
    1.0209   -4.6563    1.8331 H   0  0  0  0  0  0  0  0  0  0  0  0
   -1.7546   -4.3764    0.7978 H   0  0  0  0  0  0  0  0  0  0  0  0
   -3.7737   -4.6618    4.5255 H   0  0  0  0  0  0  0  0  0  0  0  0
   -1.6615   -3.3561    4.7930 H   0  0  0  0  0  0  0  0  0  0  0  0
  1  2  1  0  0  0  0
  1 18  1  0  0  0  0
  1 19  1  0  0  0  0
  1 20  1  0  0  0  0
  2  7  2  0  0  0  0
  2  3  1  0  0  0  0
  3  4  2  0  0  0  0
  3 21  1  0  0  0  0
  4  5  1  0  0  0  0
  4 22  1  0  0  0  0
  5  6  2  0  0  0  0
  5 23  1  0  0  0  0
  6  7  1  0  0  0  0
  6  9  1  0  0  0  0
  7  8  1  0  0  0  0
  8 24  1  0  0  0  0
  8 25  1  0  0  0  0
  8 26  1  0  0  0  0
  9 10  1  1  0  0  0
  9 11  1  0  0  0  0
  9 12  1  0  0  0  0
 11 27  1  0  0  0  0
 11 28  1  0  0  0  0
 11 29  1  0  0  0  0
 12 17  1  0  0  0  0
 12 13  2  0  0  0  0
 13 14  1  0  0  0  0
 13 30  1  0  0  0  0
 14 15  1  0  0  0  0
 14 16  1  0  0  0  0
 16 17  2  0  0  0  0
 16 31  1  0  0  0  0
 17 32  1  0  0  0  0
M  END
$$$$
