ZINC00006157
 OpenBabel08292219463D

 35 38  0  0  1  0  0  0  0  0999 V2000
   -0.0165    1.3692    0.0096 C   0  0  0  0  0  0  0  0  0  0  0  0
    1.1790    2.0645    0.0019 C   0  0  0  0  0  0  0  0  0  0  0  0
    2.3606    1.3636   -0.0383 C   0  0  0  0  0  0  0  0  0  0  0  0
    2.3823   -0.0351   -0.0554 C   0  0  0  0  0  0  0  0  0  0  0  0
    1.2046   -0.7251   -0.0050 C   0  0  0  0  0  0  0  0  0  0  0  0
    0.0021   -0.0041    0.0020 C   0  0  0  0  0  0  0  0  0  0  0  0
    1.0264   -2.2044    0.1084 C   0  0  0  0  0  0  0  0  0  0  0  0
    1.8107   -3.0316   -0.8557 C   0  0  0  0  0  0  0  0  0  0  0  0
    1.1842   -3.8049   -1.8132 C   0  0  0  0  0  0  0  0  0  0  0  0
    1.9355   -4.6202   -2.6401 C   0  0  0  0  0  0  0  0  0  0  0  0
    3.3112   -4.6696   -2.5058 C   0  0  0  0  0  0  0  0  0  0  0  0
    3.9445   -3.8747   -1.5698 C   0  0  0  0  0  0  0  0  0  0  0  0
    3.1936   -3.0257   -0.7684 C   0  0  0  0  0  0  0  0  0  0  0  0
    3.8201   -2.0705    0.0290 N   0  0  0  0  0  0  0  0  0  0  0  0
    3.7550   -0.6312   -0.1656 C   0  0  2  0  0  0  0  0  0  0  0  0
    4.1908   -0.3718   -1.1304 H   0  0  0  0  0  0  0  0  0  0  0  0
    4.6448   -0.0681    0.9629 C   0  0  0  0  0  0  0  0  0  0  0  0
    5.0933   -1.2676    1.6846 N   0  0  0  0  0  4  0  0  0  0  0  0
    4.6065   -2.3282    1.1266 C   0  0  0  0  0  0  0  0  0  0  0  0
    4.8535   -3.5991    1.5897 N   0  0  0  0  0  0  0  0  0  0  0  0
   -0.9562    1.9014    0.0259 H   0  0  0  0  0  0  0  0  0  0  0  0
    1.1840    3.1442    0.0268 H   0  0  0  0  0  0  0  0  0  0  0  0
    3.2946    1.9056   -0.0576 H   0  0  0  0  0  0  0  0  0  0  0  0
   -0.9340   -0.5427    0.0015 H   0  0  0  0  0  0  0  0  0  0  0  0
    1.3043   -2.5042    1.1188 H   0  0  0  0  0  0  0  0  0  0  0  0
   -0.0307   -2.4315   -0.0297 H   0  0  0  0  0  0  0  0  0  0  0  0
    0.1095   -3.7733   -1.9158 H   0  0  0  0  0  0  0  0  0  0  0  0
    1.4463   -5.2205   -3.3930 H   0  0  0  0  0  0  0  0  0  0  0  0
    3.8910   -5.3300   -3.1335 H   0  0  0  0  0  0  0  0  0  0  0  0
    5.0184   -3.9140   -1.4620 H   0  0  0  0  0  0  0  0  0  0  0  0
    5.4968    0.4695    0.5468 H   0  0  0  0  0  0  0  0  0  0  0  0
    4.0654    0.5802    1.6202 H   0  0  0  0  0  0  0  0  0  0  0  0
    4.4655   -4.3642    1.1369 H   0  0  0  0  0  0  0  0  0  0  0  0
    5.4157   -3.7306    2.3691 H   0  0  0  0  0  0  0  0  0  0  0  0
    5.6696   -1.2644    2.4648 H   0  0  0  0  0  0  0  0  0  0  0  0
  1  6  2  0  0  0  0
  1  2  1  0  0  0  0
  1 21  1  0  0  0  0
  2  3  2  0  0  0  0
  2 22  1  0  0  0  0
  3  4  1  0  0  0  0
  3 23  1  0  0  0  0
  4 15  1  0  0  0  0
  4  5  2  0  0  0  0
  5  6  1  0  0  0  0
  5  7  1  0  0  0  0
  6 24  1  0  0  0  0
  7  8  1  0  0  0  0
  7 25  1  0  0  0  0
  7 26  1  0  0  0  0
  8 13  2  0  0  0  0
  8  9  1  0  0  0  0
  9 10  2  0  0  0  0
  9 27  1  0  0  0  0
 10 11  1  0  0  0  0
 10 28  1  0  0  0  0
 11 12  2  0  0  0  0
 11 29  1  0  0  0  0
 12 13  1  0  0  0  0
 12 30  1  0  0  0  0
 13 14  1  0  0  0  0
 14 19  1  0  0  0  0
 14 15  1  0  0  0  0
 15 16  1  6  0  0  0
 15 17  1  0  0  0  0
 17 18  1  0  0  0  0
 17 31  1  0  0  0  0
 17 32  1  0  0  0  0
 18 19  2  0  0  0  0
 18 35  1  0  0  0  0
 19 20  1  0  0  0  0
 20 33  1  0  0  0  0
 20 34  1  0  0  0  0
M  END
$$$$
