ZINC01530741
 OpenBabel08292219463D

 42 44  0  0  0  0  0  0  0  0999 V2000
   -0.0178    1.4648    0.0101 C   0  0  0  0  0  0  0  0  0  0  0  0
    0.0021   -0.0041    0.0020 N   0  3  0  0  0  0  0  0  0  0  0  0
   -1.3761   -0.5125    0.0124 C   0  0  0  0  0  0  0  0  0  0  0  0
   -1.3553   -2.0424    0.0040 C   0  0  0  0  0  0  0  0  0  0  0  0
   -2.7691   -2.5640    0.0147 C   0  0  0  0  0  0  0  0  0  0  0  0
   -3.1759   -3.4141   -0.9354 C   0  0  0  0  0  0  0  0  0  0  0  0
   -2.2617   -3.8737   -2.0162 C   0  0  0  0  0  0  0  0  0  0  0  0
   -1.0502   -4.4584   -1.6510 C   0  0  0  0  0  0  0  0  0  0  0  0
   -0.1817   -4.9254   -2.6144 C   0  0  0  0  0  0  0  0  0  0  0  0
   -0.5309   -4.8091   -3.9481 C   0  0  0  0  0  0  0  0  0  0  0  0
   -1.7216   -4.2226   -4.3099 C   0  0  0  0  0  0  0  0  0  0  0  0
   -2.6129   -3.7258   -3.3561 C   0  0  0  0  0  0  0  0  0  0  0  0
   -3.8344   -3.0498   -3.9297 C   0  0  0  0  0  0  0  0  0  0  0  0
   -4.7567   -2.4533   -2.8869 C   0  0  0  0  0  0  0  0  0  0  0  0
   -5.3648   -3.4987   -1.9877 C   0  0  0  0  0  0  0  0  0  0  0  0
   -4.5615   -3.9515   -0.9605 C   0  0  0  0  0  0  0  0  0  0  0  0
   -5.0352   -4.8627   -0.0270 C   0  0  0  0  0  0  0  0  0  0  0  0
   -6.3272   -5.3414   -0.1696 C   0  0  0  0  0  0  0  0  0  0  0  0
   -7.1195   -4.9199   -1.2225 C   0  0  0  0  0  0  0  0  0  0  0  0
   -6.6408   -3.9814   -2.1491 C   0  0  0  0  0  0  0  0  0  0  0  0
    1.0047    1.8421    0.0024 H   0  0  0  0  0  0  0  0  0  0  0  0
   -0.5450    1.8259   -0.8730 H   0  0  0  0  0  0  0  0  0  0  0  0
   -0.5280    1.8163    0.9069 H   0  0  0  0  0  0  0  0  0  0  0  0
    0.4744   -0.3295   -0.8281 H   0  0  0  0  0  0  0  0  0  0  0  0
   -1.8863   -0.1610    0.9092 H   0  0  0  0  0  0  0  0  0  0  0  0
   -1.9033   -0.1515   -0.8706 H   0  0  0  0  0  0  0  0  0  0  0  0
   -0.8451   -2.3939   -0.8928 H   0  0  0  0  0  0  0  0  0  0  0  0
   -0.8281   -2.4035    0.8871 H   0  0  0  0  0  0  0  0  0  0  0  0
   -3.4541   -2.2517    0.7892 H   0  0  0  0  0  0  0  0  0  0  0  0
   -0.7900   -4.5458   -0.6065 H   0  0  0  0  0  0  0  0  0  0  0  0
    0.7582   -5.3762   -2.3319 H   0  0  0  0  0  0  0  0  0  0  0  0
    0.1367   -5.1814   -4.7112 H   0  0  0  0  0  0  0  0  0  0  0  0
   -1.9733   -4.1443   -5.3573 H   0  0  0  0  0  0  0  0  0  0  0  0
   -3.5084   -2.2546   -4.6003 H   0  0  0  0  0  0  0  0  0  0  0  0
   -4.3952   -3.7815   -4.5113 H   0  0  0  0  0  0  0  0  0  0  0  0
   -4.1905   -1.7497   -2.2766 H   0  0  0  0  0  0  0  0  0  0  0  0
   -5.5577   -1.9136   -3.3920 H   0  0  0  0  0  0  0  0  0  0  0  0
   -4.4114   -5.1904    0.7915 H   0  0  0  0  0  0  0  0  0  0  0  0
   -6.7188   -6.0491    0.5460 H   0  0  0  0  0  0  0  0  0  0  0  0
   -8.1181   -5.3161   -1.3327 H   0  0  0  0  0  0  0  0  0  0  0  0
   -7.2557   -3.6486   -2.9723 H   0  0  0  0  0  0  0  0  0  0  0  0
    0.4901   -0.3383    0.8195 H   0  0  0  0  0  0  0  0  0  0  0  0
  1  2  1  0  0  0  0
  1 21  1  0  0  0  0
  1 22  1  0  0  0  0
  1 23  1  0  0  0  0
  2  3  1  0  0  0  0
  2 24  1  0  0  0  0
  2 42  1  0  0  0  0
  3  4  1  0  0  0  0
  3 25  1  0  0  0  0
  3 26  1  0  0  0  0
  4  5  1  0  0  0  0
  4 27  1  0  0  0  0
  4 28  1  0  0  0  0
  5  6  2  0  0  0  0
  5 29  1  0  0  0  0
  6 16  1  0  0  0  0
  6  7  1  0  0  0  0
  7 12  2  0  0  0  0
  7  8  1  0  0  0  0
  8  9  2  0  0  0  0
  8 30  1  0  0  0  0
  9 10  1  0  0  0  0
  9 31  1  0  0  0  0
 10 11  2  0  0  0  0
 10 32  1  0  0  0  0
 11 12  1  0  0  0  0
 11 33  1  0  0  0  0
 12 13  1  0  0  0  0
 13 14  1  0  0  0  0
 13 34  1  0  0  0  0
 13 35  1  0  0  0  0
 14 15  1  0  0  0  0
 14 36  1  0  0  0  0
 14 37  1  0  0  0  0
 15 20  2  0  0  0  0
 15 16  1  0  0  0  0
 16 17  2  0  0  0  0
 17 18  1  0  0  0  0
 17 38  1  0  0  0  0
 18 19  2  0  0  0  0
 18 39  1  0  0  0  0
 19 20  1  0  0  0  0
 19 40  1  0  0  0  0
 20 41  1  0  0  0  0
M  CHG  1   2   1
M  END
$$$$
