ZINC12503222
 OpenBabel08292219463D

 34 34  0  0  0  0  0  0  0  0999 V2000
   -0.3182    1.9220   -1.2788 C   0  0  0  0  0  0  0  0  0  0  0  0
    1.0297    2.0581   -1.3161 C   0  0  0  0  0  0  0  0  0  0  0  0
    1.8025    1.0491   -0.9714 N   0  0  0  0  0  0  0  0  0  0  0  0
    1.2829   -0.1110   -0.5840 C   0  0  0  0  0  0  0  0  0  0  0  0
   -0.4670    0.2329   -0.7108 S   0  0  0  0  0  0  0  0  0  0  0  0
    1.9124   -1.2520   -0.1961 N   0  0  0  0  0  0  0  0  0  0  0  0
    3.2215   -1.2686   -0.0628 C   0  0  0  0  0  0  0  0  0  0  0  0
    3.9352   -0.1024   -0.1604 N   0  0  0  0  0  0  0  0  0  0  0  0
    3.8714   -2.4521    0.1735 N   0  0  0  0  0  0  0  0  0  0  0  0
    1.6438    3.3633   -1.7524 C   0  0  0  0  0  0  0  0  0  0  0  0
    1.8800    4.4335   -0.3069 S   0  0  0  0  0  0  0  0  0  0  0  0
    2.6169    5.9422   -0.9935 C   0  0  0  0  0  0  0  0  0  0  0  0
    2.8715    6.9443    0.1342 C   0  0  0  0  0  0  0  0  0  0  0  0
    3.5762    8.1557   -0.4198 C   0  0  0  0  0  0  0  0  0  0  0  0
    2.9157    9.2469   -0.6331 N   0  0  0  0  0  0  0  0  0  0  0  0
    1.3254    9.3533   -0.1838 S   0  0  0  0  0  0  0  0  0  0  0  0
    0.6130    8.4234   -0.9881 O   0  0  0  0  0  0  0  0  0  0  0  0
    1.3006    9.3082    1.2362 O   0  0  0  0  0  0  0  0  0  0  0  0
    0.7935   10.8601   -0.6188 N   0  0  0  0  0  2  0  0  0  0  0  0
    4.9167    8.1009   -0.6975 N   0  0  0  0  0  0  0  0  0  0  0  0
   -1.0898    2.6379   -1.5208 H   0  0  0  0  0  0  0  0  0  0  0  0
    3.5001    0.7480    0.0083 H   0  0  0  0  0  0  0  0  0  0  0  0
    4.8753   -0.1275   -0.3980 H   0  0  0  0  0  0  0  0  0  0  0  0
    3.3664   -3.2774    0.2425 H   0  0  0  0  0  0  0  0  0  0  0  0
    4.8364   -2.4644    0.2717 H   0  0  0  0  0  0  0  0  0  0  0  0
    2.6077    3.1717   -2.2239 H   0  0  0  0  0  0  0  0  0  0  0  0
    0.9823    3.8559   -2.4650 H   0  0  0  0  0  0  0  0  0  0  0  0
    3.5603    5.6964   -1.4810 H   0  0  0  0  0  0  0  0  0  0  0  0
    1.9349    6.3806   -1.7221 H   0  0  0  0  0  0  0  0  0  0  0  0
    1.9207    7.2464    0.5734 H   0  0  0  0  0  0  0  0  0  0  0  0
    3.4938    6.4800    0.8992 H   0  0  0  0  0  0  0  0  0  0  0  0
   -0.1232   11.1213   -0.4393 H   0  0  0  0  0  0  0  0  0  0  0  0
    5.4121    7.2825   -0.5375 H   0  0  0  0  0  0  0  0  0  0  0  0
    5.3703    8.8807   -1.0541 H   0  0  0  0  0  0  0  0  0  0  0  0
  1  5  1  0  0  0  0
  1  2  2  0  0  0  0
  1 21  1  0  0  0  0
  2  3  1  0  0  0  0
  2 10  1  0  0  0  0
  3  4  2  0  0  0  0
  4  5  1  0  0  0  0
  4  6  1  0  0  0  0
  6  7  2  0  0  0  0
  7  8  1  0  0  0  0
  7  9  1  0  0  0  0
  8 22  1  0  0  0  0
  8 23  1  0  0  0  0
  9 24  1  0  0  0  0
  9 25  1  0  0  0  0
 10 11  1  0  0  0  0
 10 26  1  0  0  0  0
 10 27  1  0  0  0  0
 11 12  1  0  0  0  0
 12 13  1  0  0  0  0
 12 28  1  0  0  0  0
 12 29  1  0  0  0  0
 13 14  1  0  0  0  0
 13 30  1  0  0  0  0
 13 31  1  0  0  0  0
 14 15  2  0  0  0  0
 14 20  1  0  0  0  0
 15 16  1  0  0  0  0
 16 17  2  0  0  0  0
 16 18  2  0  0  0  0
 16 19  1  0  0  0  0
 19 32  1  0  0  0  0
 20 33  1  0  0  0  0
 20 34  1  0  0  0  0
M  END
$$$$
