ZINC00537755
 OpenBabel08292219463D

 67 71  0  0  1  0  0  0  0  0999 V2000
   -1.5914    1.0159   -0.1212 C   0  0  0  0  0  0  0  0  0  0  0  0
   -0.5763    1.7485   -0.7085 C   0  0  0  0  0  0  0  0  0  0  0  0
    0.5521    1.1100   -1.1841 C   0  0  0  0  0  0  0  0  0  0  0  0
    0.6667   -0.2698   -1.0721 C   0  0  0  0  0  0  0  0  0  0  0  0
   -0.3550   -1.0028   -0.4816 C   0  0  0  0  0  0  0  0  0  0  0  0
   -1.4807   -0.3579   -0.0081 C   0  0  0  0  0  0  0  0  0  0  0  0
    1.8063   -0.9189   -1.5525 N   0  0  0  0  0  0  0  0  0  0  0  0
    2.9737   -0.3000   -2.1938 C   0  0  0  0  0  0  0  0  0  0  0  0
    3.9211   -1.3618   -2.5314 N   0  0  0  0  0  0  0  0  0  0  0  0
    3.4351   -2.5566   -2.1547 C   0  0  0  0  0  0  0  0  0  0  0  0
    3.9948   -3.6224   -2.3023 O   0  0  0  0  0  0  0  0  0  0  0  0
    2.0867   -2.3589   -1.5145 C   0  0  2  0  0  0  0  0  0  0  0  0
    1.0177   -3.1206   -2.2989 C   0  0  0  0  0  0  0  0  0  0  0  0
    1.2907   -4.6231   -2.1950 C   0  0  0  0  0  0  0  0  0  0  0  0
    1.2632   -5.0319   -0.7854 N   0  3  2  0  0  0  0  0  0  0  0  0
    2.3420   -4.3619   -0.0494 C   0  0  0  0  0  0  0  0  0  0  0  0
    2.1119   -2.8486   -0.0661 C   0  0  0  0  0  0  0  0  0  0  0  0
    1.4422   -6.4872   -0.6959 C   0  0  0  0  0  0  0  0  0  0  0  0
    1.2896   -6.9312    0.7603 C   0  0  0  0  0  0  0  0  0  0  0  0
    1.4760   -8.4469    0.8535 C   0  0  0  0  0  0  0  0  0  0  0  0
    1.3234   -8.8909    2.3097 C   0  0  0  0  0  0  0  0  0  0  0  0
    1.3846  -10.3947    2.3854 C   0  0  0  0  0  0  0  0  0  0  0  0
    2.4414  -11.0729    1.8074 C   0  0  0  0  0  0  0  0  0  0  0  0
    2.4988  -12.4520    1.8765 C   0  0  0  0  0  0  0  0  0  0  0  0
    1.4973  -13.1544    2.5251 C   0  0  0  0  0  0  0  0  0  0  0  0
    0.4393  -12.4740    3.1037 C   0  0  0  0  0  0  0  0  0  0  0  0
    0.3867  -11.0946    3.0378 C   0  0  0  0  0  0  0  0  0  0  0  0
    1.5522  -14.5026    2.5930 F   0  0  0  0  0  0  0  0  0  0  0  0
    2.4382   -8.3006    3.1343 C   0  0  0  0  0  0  0  0  0  0  0  0
    3.7517   -8.4575    2.7330 C   0  0  0  0  0  0  0  0  0  0  0  0
    4.7749   -7.9162    3.4881 C   0  0  0  0  0  0  0  0  0  0  0  0
    4.4839   -7.2167    4.6470 C   0  0  0  0  0  0  0  0  0  0  0  0
    3.1679   -7.0603    5.0480 C   0  0  0  0  0  0  0  0  0  0  0  0
    2.1461   -7.5979    4.2884 C   0  0  0  0  0  0  0  0  0  0  0  0
    5.4833   -6.6876    5.3862 F   0  0  0  0  0  0  0  0  0  0  0  0
   -2.4708    1.5182    0.2540 H   0  0  0  0  0  0  0  0  0  0  0  0
   -0.6661    2.8213   -0.7956 H   0  0  0  0  0  0  0  0  0  0  0  0
    1.3445    1.6828   -1.6430 H   0  0  0  0  0  0  0  0  0  0  0  0
   -0.2692   -2.0757   -0.3932 H   0  0  0  0  0  0  0  0  0  0  0  0
   -2.2754   -0.9271    0.4511 H   0  0  0  0  0  0  0  0  0  0  0  0
    2.6637    0.2192   -3.1007 H   0  0  0  0  0  0  0  0  0  0  0  0
    3.4406    0.4057   -1.5067 H   0  0  0  0  0  0  0  0  0  0  0  0
    4.7776   -1.2234   -2.9651 H   0  0  0  0  0  0  0  0  0  0  0  0
    0.0345   -2.8996   -1.8834 H   0  0  0  0  0  0  0  0  0  0  0  0
    1.0481   -2.8165   -3.3453 H   0  0  0  0  0  0  0  0  0  0  0  0
    0.5260   -5.1701   -2.7465 H   0  0  0  0  0  0  0  0  0  0  0  0
    2.2707   -4.8441   -2.6179 H   0  0  0  0  0  0  0  0  0  0  0  0
    2.3526   -4.7161    0.9813 H   0  0  0  0  0  0  0  0  0  0  0  0
    3.2983   -4.5888   -0.5207 H   0  0  0  0  0  0  0  0  0  0  0  0
    2.9191   -2.3518    0.4722 H   0  0  0  0  0  0  0  0  0  0  0  0
    1.1595   -2.6199    0.4122 H   0  0  0  0  0  0  0  0  0  0  0  0
    0.6896   -6.9841   -1.3080 H   0  0  0  0  0  0  0  0  0  0  0  0
    2.4363   -6.7538   -1.0548 H   0  0  0  0  0  0  0  0  0  0  0  0
    2.0422   -6.4342    1.3724 H   0  0  0  0  0  0  0  0  0  0  0  0
    0.2955   -6.6646    1.1191 H   0  0  0  0  0  0  0  0  0  0  0  0
    0.7234   -8.9438    0.2414 H   0  0  0  0  0  0  0  0  0  0  0  0
    2.4701   -8.7135    0.4947 H   0  0  0  0  0  0  0  0  0  0  0  0
    0.3641   -8.5463    2.6960 H   0  0  0  0  0  0  0  0  0  0  0  0
    3.2224  -10.5249    1.3012 H   0  0  0  0  0  0  0  0  0  0  0  0
    3.3244  -12.9817    1.4246 H   0  0  0  0  0  0  0  0  0  0  0  0
   -0.3427  -13.0209    3.6096 H   0  0  0  0  0  0  0  0  0  0  0  0
   -0.4362  -10.5634    3.4929 H   0  0  0  0  0  0  0  0  0  0  0  0
    3.9785   -9.0035    1.8291 H   0  0  0  0  0  0  0  0  0  0  0  0
    5.8010   -8.0392    3.1745 H   0  0  0  0  0  0  0  0  0  0  0  0
    2.9397   -6.5151    5.9519 H   0  0  0  0  0  0  0  0  0  0  0  0
    1.1193   -7.4722    4.5986 H   0  0  0  0  0  0  0  0  0  0  0  0
    0.3742   -4.7793   -0.3806 H   0  0  0  0  0  0  0  0  0  0  0  0
  1  6  2  0  0  0  0
  1  2  1  0  0  0  0
  1 36  1  0  0  0  0
  2  3  2  0  0  0  0
  2 37  1  0  0  0  0
  3  4  1  0  0  0  0
  3 38  1  0  0  0  0
  4  5  2  0  0  0  0
  4  7  1  0  0  0  0
  5  6  1  0  0  0  0
  5 39  1  0  0  0  0
  6 40  1  0  0  0  0
  7 12  1  0  0  0  0
  7  8  1  0  0  0  0
  8  9  1  0  0  0  0
  8 41  1  0  0  0  0
  8 42  1  0  0  0  0
  9 10  1  0  0  0  0
  9 43  1  0  0  0  0
 10 11  2  0  0  0  0
 12 10  1  6  0  0  0
 12 17  1  0  0  0  0
 12 13  1  0  0  0  0
 13 14  1  0  0  0  0
 13 44  1  0  0  0  0
 13 45  1  0  0  0  0
 14 15  1  0  0  0  0
 14 46  1  0  0  0  0
 14 47  1  0  0  0  0
 15 16  1  0  0  0  0
 15 18  1  0  0  0  0
 15 67  1  1  0  0  0
 16 17  1  0  0  0  0
 16 48  1  0  0  0  0
 16 49  1  0  0  0  0
 17 50  1  0  0  0  0
 17 51  1  0  0  0  0
 18 19  1  0  0  0  0
 18 52  1  0  0  0  0
 18 53  1  0  0  0  0
 19 20  1  0  0  0  0
 19 54  1  0  0  0  0
 19 55  1  0  0  0  0
 20 21  1  0  0  0  0
 20 56  1  0  0  0  0
 20 57  1  0  0  0  0
 21 22  1  0  0  0  0
 21 29  1  0  0  0  0
 21 58  1  0  0  0  0
 22 27  2  0  0  0  0
 22 23  1  0  0  0  0
 23 24  2  0  0  0  0
 23 59  1  0  0  0  0
 24 25  1  0  0  0  0
 24 60  1  0  0  0  0
 25 26  2  0  0  0  0
 25 28  1  0  0  0  0
 26 27  1  0  0  0  0
 26 61  1  0  0  0  0
 27 62  1  0  0  0  0
 29 34  2  0  0  0  0
 29 30  1  0  0  0  0
 30 31  2  0  0  0  0
 30 63  1  0  0  0  0
 31 32  1  0  0  0  0
 31 64  1  0  0  0  0
 32 33  2  0  0  0  0
 32 35  1  0  0  0  0
 33 34  1  0  0  0  0
 33 65  1  0  0  0  0
 34 66  1  0  0  0  0
M  CHG  1  15   1
M  END
$$$$
