ZINC03831006
 OpenBabel08292219463D

 31 31  0  0  0  0  0  0  0  0999 V2000
   -0.0187    1.5258    0.0104 C   0  0  0  0  0  0  0  0  0  0  0  0
    1.4167    2.0553   -0.0004 C   0  0  0  0  0  0  0  0  0  0  0  0
    2.1328    1.5619   -1.2592 C   0  0  0  0  0  0  0  0  0  0  0  0
    2.1536    0.0321   -1.2676 C   0  0  0  0  0  0  0  0  0  0  0  0
    0.7182   -0.4975   -1.2568 C   0  0  0  0  0  0  0  0  0  0  0  0
    0.0021   -0.0041    0.0020 C   0  0  0  0  0  0  0  0  0  0  0  0
    2.8393   -0.4404   -2.4730 N   0  0  0  0  0  0  0  0  0  0  0  0
    3.4244   -1.6545   -2.4833 C   0  0  0  0  0  0  0  0  0  0  0  0
    3.3831   -2.3571   -1.4931 O   0  0  0  0  0  0  0  0  0  0  0  0
    4.0552   -2.0891   -3.5922 N   0  0  0  0  0  0  0  0  0  0  0  0
    4.6912   -3.4088   -3.6034 C   0  0  0  0  0  0  0  0  0  0  0  0
    3.6822   -4.4572   -4.0764 C   0  0  0  0  0  0  0  0  0  0  0  0
    4.4649   -6.0814   -4.0902 Cl  0  0  0  0  0  0  0  0  0  0  0  0
    4.0990   -1.3431   -4.6436 N   0  0  0  0  0  0  0  0  0  0  0  0
    4.6691   -1.7359   -5.6457 O   0  0  0  0  0  0  0  0  0  0  0  0
   -0.5289    1.8773    0.9072 H   0  0  0  0  0  0  0  0  0  0  0  0
   -0.5459    1.8868   -0.8726 H   0  0  0  0  0  0  0  0  0  0  0  0
    1.4019    3.1452    0.0056 H   0  0  0  0  0  0  0  0  0  0  0  0
    1.9439    1.6943    0.8826 H   0  0  0  0  0  0  0  0  0  0  0  0
    1.6057    1.9230   -2.1423 H   0  0  0  0  0  0  0  0  0  0  0  0
    3.1554    1.9392   -1.2670 H   0  0  0  0  0  0  0  0  0  0  0  0
    2.6808   -0.3290   -0.3846 H   0  0  0  0  0  0  0  0  0  0  0  0
    0.1910   -0.1364   -2.1398 H   0  0  0  0  0  0  0  0  0  0  0  0
    0.7330   -1.5874   -1.2628 H   0  0  0  0  0  0  0  0  0  0  0  0
    0.5293   -0.3651    0.8851 H   0  0  0  0  0  0  0  0  0  0  0  0
   -1.0205   -0.3814    0.0098 H   0  0  0  0  0  0  0  0  0  0  0  0
    2.8723    0.1206   -3.2636 H   0  0  0  0  0  0  0  0  0  0  0  0
    5.5451   -3.3949   -4.2806 H   0  0  0  0  0  0  0  0  0  0  0  0
    5.0292   -3.6578   -2.5975 H   0  0  0  0  0  0  0  0  0  0  0  0
    2.8282   -4.4711   -3.3992 H   0  0  0  0  0  0  0  0  0  0  0  0
    3.3441   -4.2082   -5.0823 H   0  0  0  0  0  0  0  0  0  0  0  0
  1  6  1  0  0  0  0
  1  2  1  0  0  0  0
  1 16  1  0  0  0  0
  1 17  1  0  0  0  0
  2  3  1  0  0  0  0
  2 18  1  0  0  0  0
  2 19  1  0  0  0  0
  3  4  1  0  0  0  0
  3 20  1  0  0  0  0
  3 21  1  0  0  0  0
  4  5  1  0  0  0  0
  4  7  1  0  0  0  0
  4 22  1  0  0  0  0
  5  6  1  0  0  0  0
  5 23  1  0  0  0  0
  5 24  1  0  0  0  0
  6 25  1  0  0  0  0
  6 26  1  0  0  0  0
  7  8  1  0  0  0  0
  7 27  1  0  0  0  0
  8  9  2  0  0  0  0
  8 10  1  0  0  0  0
 10 11  1  0  0  0  0
 10 14  1  0  0  0  0
 11 12  1  0  0  0  0
 11 28  1  0  0  0  0
 11 29  1  0  0  0  0
 12 13  1  0  0  0  0
 12 30  1  0  0  0  0
 12 31  1  0  0  0  0
 14 15  2  0  0  0  0
M  END
$$$$
