ZINC64624931
 OpenBabel08292219463D

 59 62  0  0  0  0  0  0  0  0999 V2000
   -0.2199    1.6466    0.5971 C   0  0  0  0  0  0  0  0  0  0  0  0
   -0.1481    0.1215    0.4992 C   0  0  0  0  0  0  0  0  0  0  0  0
   -1.5425   -0.4419    0.4027 C   0  0  0  0  0  0  0  0  0  0  0  0
   -2.4999    0.3034    0.4114 O   0  0  0  0  0  0  0  0  0  0  0  0
   -1.7423   -1.8910    0.2984 C   0  0  0  0  0  0  0  0  0  0  0  0
   -0.6385   -2.7532    0.2941 C   0  0  0  0  0  0  0  0  0  0  0  0
   -0.8329   -4.1116    0.1988 C   0  0  0  0  0  0  0  0  0  0  0  0
   -2.1206   -4.6343    0.1045 C   0  0  0  0  0  0  0  0  0  0  0  0
   -3.2288   -3.7839    0.1036 C   0  0  0  0  0  0  0  0  0  0  0  0
   -3.0379   -2.4165    0.2086 C   0  0  0  0  0  0  0  0  0  0  0  0
   -4.5291   -4.2725   -0.0020 N   0  0  0  0  0  0  0  0  0  0  0  0
   -4.9285   -5.5547    0.3642 C   0  0  0  0  0  0  0  0  0  0  0  0
   -6.2597   -5.7707    0.7058 C   0  0  0  0  0  0  0  0  0  0  0  0
   -6.6909   -7.0319    1.0695 C   0  0  0  0  0  0  0  0  0  0  0  0
   -5.8023   -8.0902    1.0960 C   0  0  0  0  0  0  0  0  0  0  0  0
   -4.4766   -7.8869    0.7605 C   0  0  0  0  0  0  0  0  0  0  0  0
   -4.0354   -6.6219    0.3982 C   0  0  0  0  0  0  0  0  0  0  0  0
   -2.3399   -6.3788   -0.0104 S   0  0  0  0  0  0  0  0  0  0  0  0
   -5.5514   -3.3707   -0.5385 C   0  0  0  0  0  0  0  0  0  0  0  0
   -6.1934   -2.5876    0.6084 C   0  0  0  0  0  0  0  0  0  0  0  0
   -7.2185   -1.6833    0.0704 N   0  3  0  0  0  0  0  0  0  0  0  0
   -6.5802   -0.6725   -0.7829 C   0  0  0  0  0  0  0  0  0  0  0  0
   -7.6497    0.2583   -1.3587 C   0  0  0  0  0  0  0  0  0  0  0  0
   -8.3736    0.9086   -0.2572 N   0  0  0  0  0  0  0  0  0  0  0  0
   -8.9973   -0.0921    0.6201 C   0  0  0  0  0  0  0  0  0  0  0  0
   -7.9167   -1.0201    1.1795 C   0  0  0  0  0  0  0  0  0  0  0  0
   -9.3731    1.8549   -0.7703 C   0  0  0  0  0  0  0  0  0  0  0  0
   -9.9275    2.6884    0.3868 C   0  0  0  0  0  0  0  0  0  0  0  0
   -8.8847    3.4988    0.9326 O   0  0  0  0  0  0  0  0  0  0  0  0
    0.7886    2.0541    0.6669 H   0  0  0  0  0  0  0  0  0  0  0  0
   -0.7121    2.0449   -0.2902 H   0  0  0  0  0  0  0  0  0  0  0  0
   -0.7875    1.9275    1.4843 H   0  0  0  0  0  0  0  0  0  0  0  0
    0.4194   -0.1594   -0.3880 H   0  0  0  0  0  0  0  0  0  0  0  0
    0.3441   -0.2768    1.3865 H   0  0  0  0  0  0  0  0  0  0  0  0
    0.3621   -2.3528    0.3649 H   0  0  0  0  0  0  0  0  0  0  0  0
    0.0179   -4.7768    0.1968 H   0  0  0  0  0  0  0  0  0  0  0  0
   -3.8900   -1.7529    0.2171 H   0  0  0  0  0  0  0  0  0  0  0  0
   -6.9595   -4.9482    0.6870 H   0  0  0  0  0  0  0  0  0  0  0  0
   -7.7258   -7.1913    1.3343 H   0  0  0  0  0  0  0  0  0  0  0  0
   -6.1432   -9.0752    1.3789 H   0  0  0  0  0  0  0  0  0  0  0  0
   -3.7826   -8.7141    0.7809 H   0  0  0  0  0  0  0  0  0  0  0  0
   -5.0905   -2.6753   -1.2400 H   0  0  0  0  0  0  0  0  0  0  0  0
   -6.3156   -3.9530   -1.0534 H   0  0  0  0  0  0  0  0  0  0  0  0
   -6.6544   -3.2830    1.3099 H   0  0  0  0  0  0  0  0  0  0  0  0
   -5.4293   -2.0053    1.1233 H   0  0  0  0  0  0  0  0  0  0  0  0
   -5.8732   -0.0913   -0.1910 H   0  0  0  0  0  0  0  0  0  0  0  0
   -6.0516   -1.1666   -1.5981 H   0  0  0  0  0  0  0  0  0  0  0  0
   -7.1748    1.0175   -1.9800 H   0  0  0  0  0  0  0  0  0  0  0  0
   -8.3491   -0.3205   -1.9619 H   0  0  0  0  0  0  0  0  0  0  0  0
   -9.5056    0.4114    1.4424 H   0  0  0  0  0  0  0  0  0  0  0  0
   -9.7190   -0.6767    0.0495 H   0  0  0  0  0  0  0  0  0  0  0  0
   -8.3790   -1.7718    1.8193 H   0  0  0  0  0  0  0  0  0  0  0  0
   -7.2029   -0.4371    1.7614 H   0  0  0  0  0  0  0  0  0  0  0  0
   -8.9069    2.5144   -1.5023 H   0  0  0  0  0  0  0  0  0  0  0  0
  -10.1860    1.3040   -1.2433 H   0  0  0  0  0  0  0  0  0  0  0  0
  -10.7312    3.3278    0.0216 H   0  0  0  0  0  0  0  0  0  0  0  0
  -10.3142    2.0246    1.1601 H   0  0  0  0  0  0  0  0  0  0  0  0
   -9.1651    4.0552    1.6721 H   0  0  0  0  0  0  0  0  0  0  0  0
   -7.8815   -2.2134   -0.4751 H   0  0  0  0  0  0  0  0  0  0  0  0
  1  2  1  0  0  0  0
  1 30  1  0  0  0  0
  1 31  1  0  0  0  0
  1 32  1  0  0  0  0
  2  3  1  0  0  0  0
  2 33  1  0  0  0  0
  2 34  1  0  0  0  0
  3  4  2  0  0  0  0
  3  5  1  0  0  0  0
  5 10  2  0  0  0  0
  5  6  1  0  0  0  0
  6  7  2  0  0  0  0
  6 35  1  0  0  0  0
  7  8  1  0  0  0  0
  7 36  1  0  0  0  0
  8 18  1  0  0  0  0
  8  9  2  0  0  0  0
  9 10  1  0  0  0  0
  9 11  1  0  0  0  0
 10 37  1  0  0  0  0
 11 12  1  0  0  0  0
 11 19  1  0  0  0  0
 12 17  2  0  0  0  0
 12 13  1  0  0  0  0
 13 14  2  0  0  0  0
 13 38  1  0  0  0  0
 14 15  1  0  0  0  0
 14 39  1  0  0  0  0
 15 16  2  0  0  0  0
 15 40  1  0  0  0  0
 16 17  1  0  0  0  0
 16 41  1  0  0  0  0
 17 18  1  0  0  0  0
 19 20  1  0  0  0  0
 19 42  1  0  0  0  0
 19 43  1  0  0  0  0
 20 21  1  0  0  0  0
 20 44  1  0  0  0  0
 20 45  1  0  0  0  0
 21 26  1  0  0  0  0
 21 22  1  0  0  0  0
 21 59  1  0  0  0  0
 22 23  1  0  0  0  0
 22 46  1  0  0  0  0
 22 47  1  0  0  0  0
 23 24  1  0  0  0  0
 23 48  1  0  0  0  0
 23 49  1  0  0  0  0
 24 25  1  0  0  0  0
 24 27  1  0  0  0  0
 25 26  1  0  0  0  0
 25 50  1  0  0  0  0
 25 51  1  0  0  0  0
 26 52  1  0  0  0  0
 26 53  1  0  0  0  0
 27 28  1  0  0  0  0
 27 54  1  0  0  0  0
 27 55  1  0  0  0  0
 28 29  1  0  0  0  0
 28 56  1  0  0  0  0
 28 57  1  0  0  0  0
 29 58  1  0  0  0  0
M  CHG  1  21   1
M  END
$$$$
