ZINC14768667
 OpenBabel08292219463D

 31 31  0  0  0  0  0  0  0  0999 V2000
    5.5621    6.0601    3.0516 C   0  0  0  0  0  0  0  0  0  0  0  0
    4.5420    5.1275    3.0739 C   0  0  0  0  0  0  0  0  0  0  0  0
    4.8263    3.7981    3.3243 C   0  0  0  0  0  0  0  0  0  0  0  0
    6.1307    3.4012    3.5519 C   0  0  0  0  0  0  0  0  0  0  0  0
    7.1510    4.3336    3.5286 C   0  0  0  0  0  0  0  0  0  0  0  0
    6.8665    5.6633    3.2797 C   0  0  0  0  0  0  0  0  0  0  0  0
    6.4405    1.9520    3.8258 C   0  0  0  0  0  0  0  0  0  0  0  0
    6.7221    1.2323    2.5054 C   0  0  0  0  0  0  0  0  0  0  0  0
    7.0232   -0.1765    2.7717 N   0  0  0  0  0  0  0  0  0  0  0  0
    7.3103   -1.0266    1.7304 C   0  0  0  0  0  0  0  0  0  0  0  0
    7.2218   -0.6044    0.5018 N   0  0  0  0  0  0  0  0  0  0  0  0
    7.6926   -2.3280    1.9872 N   0  0  0  0  0  0  0  0  0  0  0  0
    7.5036   -3.2995    1.0356 C   0  0  0  0  0  0  0  0  0  0  0  0
    8.0185   -4.5141    1.2130 N   0  0  0  0  0  4  0  0  0  0  0  0
    6.8054   -3.0268   -0.0645 N   0  0  0  0  0  0  0  0  0  0  0  0
    5.3406    7.0981    2.8516 H   0  0  0  0  0  0  0  0  0  0  0  0
    3.5229    5.4376    2.8962 H   0  0  0  0  0  0  0  0  0  0  0  0
    4.0292    3.0696    3.3425 H   0  0  0  0  0  0  0  0  0  0  0  0
    8.1700    4.0236    3.7068 H   0  0  0  0  0  0  0  0  0  0  0  0
    7.6636    6.3919    3.2619 H   0  0  0  0  0  0  0  0  0  0  0  0
    7.3163    1.8834    4.4710 H   0  0  0  0  0  0  0  0  0  0  0  0
    5.5881    1.4853    4.3194 H   0  0  0  0  0  0  0  0  0  0  0  0
    5.8462    1.3009    1.8602 H   0  0  0  0  0  0  0  0  0  0  0  0
    7.5745    1.6990    2.0117 H   0  0  0  0  0  0  0  0  0  0  0  0
    7.0200   -0.5093    3.6828 H   0  0  0  0  0  0  0  0  0  0  0  0
    7.3805   -1.2163   -0.2339 H   0  0  0  0  0  0  0  0  0  0  0  0
    8.0947   -2.5561    2.8400 H   0  0  0  0  0  0  0  0  0  0  0  0
    8.5273   -4.7128    2.0146 H   0  0  0  0  0  0  0  0  0  0  0  0
    6.0528   -2.4163   -0.0223 H   0  0  0  0  0  0  0  0  0  0  0  0
    7.0493   -3.4385   -0.9082 H   0  0  0  0  0  0  0  0  0  0  0  0
    7.8850   -5.2004    0.5407 H   0  0  0  0  0  0  0  0  0  0  0  0
  1  6  2  0  0  0  0
  1  2  1  0  0  0  0
  1 16  1  0  0  0  0
  2  3  2  0  0  0  0
  2 17  1  0  0  0  0
  3  4  1  0  0  0  0
  3 18  1  0  0  0  0
  4  5  2  0  0  0  0
  4  7  1  0  0  0  0
  5  6  1  0  0  0  0
  5 19  1  0  0  0  0
  6 20  1  0  0  0  0
  7  8  1  0  0  0  0
  7 21  1  0  0  0  0
  7 22  1  0  0  0  0
  8  9  1  0  0  0  0
  8 23  1  0  0  0  0
  8 24  1  0  0  0  0
  9 10  1  0  0  0  0
  9 25  1  0  0  0  0
 10 11  2  0  0  0  0
 10 12  1  0  0  0  0
 11 26  1  0  0  0  0
 12 13  1  0  0  0  0
 12 27  1  0  0  0  0
 13 14  2  0  0  0  0
 13 15  1  0  0  0  0
 14 28  1  0  0  0  0
 14 31  1  0  0  0  0
 15 29  1  0  0  0  0
 15 30  1  0  0  0  0
M  END
$$$$
