ZINC00001281
 OpenBabel08292219463D

 29 30  0  0  0  0  0  0  0  0999 V2000
   -0.1806    1.0357    0.2000 C   0  0  0  0  0  0  0  0  0  0  0  0
    0.9245    1.8481    0.0217 C   0  0  0  0  0  0  0  0  0  0  0  0
    2.1862    1.2928   -0.0570 C   0  0  0  0  0  0  0  0  0  0  0  0
    2.3450   -0.0840    0.0433 C   0  0  0  0  0  0  0  0  0  0  0  0
    1.2329   -0.8970    0.2224 C   0  0  0  0  0  0  0  0  0  0  0  0
   -0.0262   -0.3347    0.3002 C   0  0  0  0  0  0  0  0  0  0  0  0
    1.4001   -2.3907    0.3312 C   0  0  0  0  0  0  0  0  0  0  0  0
    1.7182   -2.7580    1.7577 C   0  0  0  0  0  0  0  0  0  0  0  0
    1.8014   -1.8875    2.6073 O   0  0  0  0  0  0  0  0  0  0  0  0
    1.8923   -3.9257    2.0622 O   0  0  0  0  0  1  0  0  0  0  0  0
    3.6199   -0.6493   -0.0363 N   0  0  0  0  0  0  0  0  0  0  0  0
    3.9705   -1.4310   -1.1417 C   0  0  0  0  0  0  0  0  0  0  0  0
    3.3529   -1.2194   -2.3686 C   0  0  0  0  0  0  0  0  0  0  0  0
    3.7019   -1.9940   -3.4588 C   0  0  0  0  0  0  0  0  0  0  0  0
    4.6640   -2.9789   -3.3298 C   0  0  0  0  0  0  0  0  0  0  0  0
    5.2803   -3.1928   -2.1105 C   0  0  0  0  0  0  0  0  0  0  0  0
    4.9413   -2.4177   -1.0174 C   0  0  0  0  0  0  0  0  0  0  0  0
    5.7217   -2.6815    0.5107 Cl  0  0  0  0  0  0  0  0  0  0  0  0
    2.1442    0.0160   -2.5315 Cl  0  0  0  0  0  0  0  0  0  0  0  0
   -1.1659    1.4731    0.2657 H   0  0  0  0  0  0  0  0  0  0  0  0
    0.8003    2.9181   -0.0565 H   0  0  0  0  0  0  0  0  0  0  0  0
    3.0486    1.9277   -0.1966 H   0  0  0  0  0  0  0  0  0  0  0  0
   -0.8913   -0.9662    0.4394 H   0  0  0  0  0  0  0  0  0  0  0  0
    0.4765   -2.8828    0.0266 H   0  0  0  0  0  0  0  0  0  0  0  0
    2.2146   -2.7133   -0.3173 H   0  0  0  0  0  0  0  0  0  0  0  0
    4.2621   -0.4997    0.6751 H   0  0  0  0  0  0  0  0  0  0  0  0
    3.2224   -1.8301   -4.4125 H   0  0  0  0  0  0  0  0  0  0  0  0
    4.9344   -3.5828   -4.1833 H   0  0  0  0  0  0  0  0  0  0  0  0
    6.0307   -3.9634   -2.0133 H   0  0  0  0  0  0  0  0  0  0  0  0
  1  6  2  0  0  0  0
  1  2  1  0  0  0  0
  1 20  1  0  0  0  0
  2  3  2  0  0  0  0
  2 21  1  0  0  0  0
  3  4  1  0  0  0  0
  3 22  1  0  0  0  0
  4  5  2  0  0  0  0
  4 11  1  0  0  0  0
  5  6  1  0  0  0  0
  5  7  1  0  0  0  0
  6 23  1  0  0  0  0
  7  8  1  0  0  0  0
  7 24  1  0  0  0  0
  7 25  1  0  0  0  0
  8  9  2  0  0  0  0
  8 10  1  0  0  0  0
 11 12  1  0  0  0  0
 11 26  1  0  0  0  0
 12 17  2  0  0  0  0
 12 13  1  0  0  0  0
 13 14  2  0  0  0  0
 13 19  1  0  0  0  0
 14 15  1  0  0  0  0
 14 27  1  0  0  0  0
 15 16  2  0  0  0  0
 15 28  1  0  0  0  0
 16 17  1  0  0  0  0
 16 29  1  0  0  0  0
 17 18  1  0  0  0  0
M  END
$$$$
