ZINC03830212
 OpenBabel08292219463D

 61 63  0  0  0  0  0  0  0  0999 V2000
   -4.1677    4.6447    4.0546 C   0  0  0  0  0  0  0  0  0  0  0  0
   -2.9795    4.1958    4.9076 C   0  0  0  0  0  0  0  0  0  0  0  0
   -2.2245    3.0795    4.1832 C   0  0  0  0  0  0  0  0  0  0  0  0
   -1.0363    2.6306    5.0361 C   0  0  0  0  0  0  0  0  0  0  0  0
   -0.2927    1.5310    4.3226 C   0  0  0  0  0  0  0  0  0  0  0  0
    0.7390    1.7197    3.4530 C   0  0  0  0  0  0  0  0  0  0  0  0
    1.1431    0.3689    3.0136 C   0  0  0  0  0  0  0  0  0  0  0  0
    2.1157   -0.1196    2.1476 C   0  0  0  0  0  0  0  0  0  0  0  0
    2.2335   -1.4791    1.9520 C   0  0  0  0  0  0  0  0  0  0  0  0
    1.3877   -2.3551    2.6156 C   0  0  0  0  0  0  0  0  0  0  0  0
    0.4203   -1.8818    3.4760 C   0  0  0  0  0  0  0  0  0  0  0  0
    0.2862   -0.5146    3.6855 C   0  0  0  0  0  0  0  0  0  0  0  0
   -0.5429    0.2233    4.4527 O   0  0  0  0  0  0  0  0  0  0  0  0
    1.3271    3.0012    3.0377 C   0  0  0  0  0  0  0  0  0  0  0  0
    0.9433    3.5452    2.0190 O   0  0  0  0  0  0  0  0  0  0  0  0
    2.3833    3.6285    3.8565 C   0  0  0  0  0  0  0  0  0  0  0  0
    2.9023    2.9553    4.9660 C   0  0  0  0  0  0  0  0  0  0  0  0
    3.8914    3.5418    5.7244 C   0  0  0  0  0  0  0  0  0  0  0  0
    4.3655    4.8065    5.3942 C   0  0  0  0  0  0  0  0  0  0  0  0
    3.8481    5.4816    4.2943 C   0  0  0  0  0  0  0  0  0  0  0  0
    2.8628    4.8995    3.5275 C   0  0  0  0  0  0  0  0  0  0  0  0
    4.5683    7.3863    3.8021 I   0  0  0  0  0  0  0  0  0  0  0  0
    5.3362    5.3834    6.1473 O   0  0  0  0  0  0  0  0  0  0  0  0
    4.9106    6.1869    7.2496 C   0  0  0  0  0  0  0  0  0  0  0  0
    6.1355    6.7485    7.9743 C   0  0  0  0  0  0  0  0  0  0  0  0
    6.0477    8.8560    6.7855 C   0  0  0  0  0  0  0  0  0  0  0  0
    5.8232    9.6517    8.0729 C   0  0  0  0  0  0  0  0  0  0  0  0
    8.1576    8.0399    7.6484 C   0  0  0  0  0  0  0  0  0  0  0  0
    9.0268    8.6709    6.5589 C   0  0  0  0  0  0  0  0  0  0  0  0
    4.6769    2.5302    7.3823 I   0  0  0  0  0  0  0  0  0  0  0  0
   -3.8070    5.0137    3.0946 H   0  0  0  0  0  0  0  0  0  0  0  0
   -4.8371    3.8002    3.8910 H   0  0  0  0  0  0  0  0  0  0  0  0
   -4.7056    5.4399    4.5707 H   0  0  0  0  0  0  0  0  0  0  0  0
   -3.3403    3.8267    5.8677 H   0  0  0  0  0  0  0  0  0  0  0  0
   -2.3101    5.0403    5.0713 H   0  0  0  0  0  0  0  0  0  0  0  0
   -2.8939    2.2350    4.0195 H   0  0  0  0  0  0  0  0  0  0  0  0
   -1.8638    3.4485    3.2231 H   0  0  0  0  0  0  0  0  0  0  0  0
   -0.3669    3.4751    5.1998 H   0  0  0  0  0  0  0  0  0  0  0  0
   -1.3971    2.2615    5.9962 H   0  0  0  0  0  0  0  0  0  0  0  0
    2.7746    0.5624    1.6307 H   0  0  0  0  0  0  0  0  0  0  0  0
    2.9870   -1.8632    1.2803 H   0  0  0  0  0  0  0  0  0  0  0  0
    1.4876   -3.4186    2.4564 H   0  0  0  0  0  0  0  0  0  0  0  0
   -0.2334   -2.5732    3.9869 H   0  0  0  0  0  0  0  0  0  0  0  0
    2.5311    1.9750    5.2260 H   0  0  0  0  0  0  0  0  0  0  0  0
    2.4616    5.4243    2.6731 H   0  0  0  0  0  0  0  0  0  0  0  0
    4.2961    7.0095    6.8838 H   0  0  0  0  0  0  0  0  0  0  0  0
    4.3279    5.5772    7.9401 H   0  0  0  0  0  0  0  0  0  0  0  0
    5.8148    7.2875    8.8658 H   0  0  0  0  0  0  0  0  0  0  0  0
    6.7945    5.9295    8.2624 H   0  0  0  0  0  0  0  0  0  0  0  0
    6.5703    9.4791    6.0597 H   0  0  0  0  0  0  0  0  0  0  0  0
    5.0854    8.5497    6.3753 H   0  0  0  0  0  0  0  0  0  0  0  0
    6.7760   10.0446    8.4280 H   0  0  0  0  0  0  0  0  0  0  0  0
    5.1406   10.4781    7.8749 H   0  0  0  0  0  0  0  0  0  0  0  0
    5.3932    8.9994    8.8329 H   0  0  0  0  0  0  0  0  0  0  0  0
    8.0090    8.7572    8.4556 H   0  0  0  0  0  0  0  0  0  0  0  0
    8.6530    7.1510    8.0390 H   0  0  0  0  0  0  0  0  0  0  0  0
   10.0246    8.8607    6.9545 H   0  0  0  0  0  0  0  0  0  0  0  0
    9.0959    7.9908    5.7099 H   0  0  0  0  0  0  0  0  0  0  0  0
    8.5791    9.6109    6.2359 H   0  0  0  0  0  0  0  0  0  0  0  0
    6.8605    7.6515    7.0557 N   0  3  0  0  0  0  0  0  0  0  0  0
    7.0320    7.1595    6.1709 H   0  0  0  0  0  0  0  0  0  0  0  0
  1  2  1  0  0  0  0
  1 31  1  0  0  0  0
  1 32  1  0  0  0  0
  1 33  1  0  0  0  0
  2  3  1  0  0  0  0
  2 34  1  0  0  0  0
  2 35  1  0  0  0  0
  3  4  1  0  0  0  0
  3 36  1  0  0  0  0
  3 37  1  0  0  0  0
  4  5  1  0  0  0  0
  4 38  1  0  0  0  0
  4 39  1  0  0  0  0
  5 13  1  0  0  0  0
  5  6  2  0  0  0  0
  6  7  1  0  0  0  0
  6 14  1  0  0  0  0
  7 12  2  0  0  0  0
  7  8  1  0  0  0  0
  8  9  2  0  0  0  0
  8 40  1  0  0  0  0
  9 10  1  0  0  0  0
  9 41  1  0  0  0  0
 10 11  2  0  0  0  0
 10 42  1  0  0  0  0
 11 12  1  0  0  0  0
 11 43  1  0  0  0  0
 12 13  1  0  0  0  0
 14 15  2  0  0  0  0
 14 16  1  0  0  0  0
 16 21  2  0  0  0  0
 16 17  1  0  0  0  0
 17 18  2  0  0  0  0
 17 44  1  0  0  0  0
 18 19  1  0  0  0  0
 18 30  1  0  0  0  0
 19 20  2  0  0  0  0
 19 23  1  0  0  0  0
 20 21  1  0  0  0  0
 20 22  1  0  0  0  0
 21 45  1  0  0  0  0
 23 24  1  0  0  0  0
 24 25  1  0  0  0  0
 24 46  1  0  0  0  0
 24 47  1  0  0  0  0
 25 48  1  0  0  0  0
 25 49  1  0  0  0  0
 25 60  1  0  0  0  0
 26 27  1  0  0  0  0
 26 50  1  0  0  0  0
 26 51  1  0  0  0  0
 26 60  1  0  0  0  0
 27 52  1  0  0  0  0
 27 53  1  0  0  0  0
 27 54  1  0  0  0  0
 28 29  1  0  0  0  0
 28 55  1  0  0  0  0
 28 56  1  0  0  0  0
 28 60  1  0  0  0  0
 29 57  1  0  0  0  0
 29 58  1  0  0  0  0
 29 59  1  0  0  0  0
 60 61  1  0  0  0  0
M  CHG  1  60   1
M  END
$$$$
