ZINC00601301
 OpenBabel08292219463D

 41 43  0  0  1  0  0  0  0  0999 V2000
    6.0383    2.4815   -1.6700 C   0  0  0  0  0  0  0  0  0  0  0  0
    6.3437    1.1709   -1.9860 C   0  0  0  0  0  0  0  0  0  0  0  0
    5.5907    0.1390   -1.4576 C   0  0  0  0  0  0  0  0  0  0  0  0
    4.5326    0.4177   -0.6128 C   0  0  0  0  0  0  0  0  0  0  0  0
    4.2278    1.7283   -0.2960 C   0  0  0  0  0  0  0  0  0  0  0  0
    4.9799    2.7603   -0.8255 C   0  0  0  0  0  0  0  0  0  0  0  0
    3.7112   -0.7071   -0.0376 C   0  0  0  0  0  0  0  0  0  0  0  0
    4.2363   -1.0617    1.3550 C   0  0  2  0  0  0  0  0  0  0  0  0
    4.2577   -0.1666    1.9766 H   0  0  0  0  0  0  0  0  0  0  0  0
    5.5843   -1.6140    1.2445 N   0  0  0  0  0  0  0  0  0  0  0  0
    5.8570   -2.8613    0.6894 C   0  0  0  0  0  0  0  0  0  0  0  0
    7.1401   -3.1165    0.2076 C   0  0  0  0  0  0  0  0  0  0  0  0
    7.4464   -4.3477   -0.3329 C   0  0  0  0  0  0  0  0  0  0  0  0
    6.4841   -5.3389   -0.3998 C   0  0  0  0  0  0  0  0  0  0  0  0
    5.2071   -5.0914    0.0704 C   0  0  0  0  0  0  0  0  0  0  0  0
    4.8948   -3.8584    0.6038 C   0  0  0  0  0  0  0  0  0  0  0  0
    3.2512   -3.5335    1.1667 S   0  0  0  0  0  0  0  0  0  0  0  0
    2.4530   -3.3120    0.0121 O   0  0  0  0  0  0  0  0  0  0  0  0
    2.9413   -4.5241    2.1373 O   0  0  0  0  0  0  0  0  0  0  0  0
    3.3561   -2.0736    1.9737 N   0  0  0  0  0  0  0  0  0  0  0  0
    6.8839   -6.9130   -1.0830 S   0  0  0  0  0  0  0  0  0  0  0  0
    8.0922   -7.3302   -0.4622 O   0  0  0  0  0  0  0  0  0  0  0  0
    5.6952   -7.6902   -1.0354 O   0  0  0  0  0  0  0  0  0  0  0  0
    7.2316   -6.6776   -2.6849 N   0  0  0  0  0  0  0  0  0  0  0  0
    8.8354   -4.6141   -0.8533 C   0  0  0  0  0  0  0  0  0  0  0  0
    9.6253   -3.4726   -0.6797 F   0  0  0  0  0  0  0  0  0  0  0  0
    9.3999   -5.6833   -0.1495 F   0  0  0  0  0  0  0  0  0  0  0  0
    8.7703   -4.9337   -2.2137 F   0  0  0  0  0  0  0  0  0  0  0  0
    6.6293    3.2875   -2.0792 H   0  0  0  0  0  0  0  0  0  0  0  0
    7.1703    0.9531   -2.6460 H   0  0  0  0  0  0  0  0  0  0  0  0
    5.8289   -0.8849   -1.7051 H   0  0  0  0  0  0  0  0  0  0  0  0
    3.4010    1.9461    0.3637 H   0  0  0  0  0  0  0  0  0  0  0  0
    4.7415    3.7842   -0.5784 H   0  0  0  0  0  0  0  0  0  0  0  0
    2.6692   -0.3956    0.0355 H   0  0  0  0  0  0  0  0  0  0  0  0
    3.7849   -1.5796   -0.6867 H   0  0  0  0  0  0  0  0  0  0  0  0
    6.3271   -1.0846    1.5744 H   0  0  0  0  0  0  0  0  0  0  0  0
    7.8966   -2.3474    0.2574 H   0  0  0  0  0  0  0  0  0  0  0  0
    4.4540   -5.8639    0.0195 H   0  0  0  0  0  0  0  0  0  0  0  0
    2.8729   -1.9014    2.7969 H   0  0  0  0  0  0  0  0  0  0  0  0
    7.1885   -5.7860   -3.0646 H   0  0  0  0  0  0  0  0  0  0  0  0
    7.4784   -7.4312   -3.2435 H   0  0  0  0  0  0  0  0  0  0  0  0
  1  6  2  0  0  0  0
  1  2  1  0  0  0  0
  1 29  1  0  0  0  0
  2  3  2  0  0  0  0
  2 30  1  0  0  0  0
  3  4  1  0  0  0  0
  3 31  1  0  0  0  0
  4  5  2  0  0  0  0
  4  7  1  0  0  0  0
  5  6  1  0  0  0  0
  5 32  1  0  0  0  0
  6 33  1  0  0  0  0
  7  8  1  0  0  0  0
  7 34  1  0  0  0  0
  7 35  1  0  0  0  0
  8  9  1  1  0  0  0
  8 20  1  0  0  0  0
  8 10  1  0  0  0  0
 10 11  1  0  0  0  0
 10 36  1  0  0  0  0
 11 16  2  0  0  0  0
 11 12  1  0  0  0  0
 12 13  2  0  0  0  0
 12 37  1  0  0  0  0
 13 14  1  0  0  0  0
 13 25  1  0  0  0  0
 14 15  2  0  0  0  0
 14 21  1  0  0  0  0
 15 16  1  0  0  0  0
 15 38  1  0  0  0  0
 16 17  1  0  0  0  0
 17 18  2  0  0  0  0
 17 19  2  0  0  0  0
 17 20  1  0  0  0  0
 20 39  1  0  0  0  0
 21 22  2  0  0  0  0
 21 23  2  0  0  0  0
 21 24  1  0  0  0  0
 24 40  1  0  0  0  0
 24 41  1  0  0  0  0
 25 26  1  0  0  0  0
 25 27  1  0  0  0  0
 25 28  1  0  0  0  0
M  END
$$$$
