ZINC00057319
 OpenBabel08292219463D

 44 45  0  0  1  0  0  0  0  0999 V2000
   -0.0187    1.5258    0.0104 C   0  0  0  0  0  0  0  0  0  0  0  0
    0.0021   -0.0041    0.0020 C   0  0  1  0  0  0  0  0  0  0  0  0
   -1.0205   -0.3814    0.0098 H   0  0  0  0  0  0  0  0  0  0  0  0
    0.7182   -0.4975   -1.2568 C   0  0  0  0  0  0  0  0  0  0  0  0
    0.6316   -2.0003   -1.3275 C   0  0  0  0  0  0  0  0  0  0  0  0
    1.6125   -2.7766   -0.7383 C   0  0  0  0  0  0  0  0  0  0  0  0
    1.5356   -4.1544   -0.8021 C   0  0  0  0  0  0  0  0  0  0  0  0
    0.4730   -4.7591   -1.4577 C   0  0  0  0  0  0  0  0  0  0  0  0
   -0.5101   -3.9780   -2.0477 C   0  0  0  0  0  0  0  0  0  0  0  0
   -0.4314   -2.6006   -1.9766 C   0  0  0  0  0  0  0  0  0  0  0  0
    0.3954   -6.1144   -1.5223 O   0  0  0  0  0  0  0  0  0  0  0  0
    0.7126   -0.4907    1.1921 N   0  3  0  0  0  0  0  0  0  0  0  0
   -0.0398   -0.1189    2.3978 C   0  0  0  0  0  0  0  0  0  0  0  0
    0.7001   -0.6257    3.6373 C   0  0  1  0  0  0  0  0  0  0  0  0
    1.6931   -0.1778    3.6761 H   0  0  0  0  0  0  0  0  0  0  0  0
   -0.0717   -0.2443    4.8741 C   0  0  0  0  0  0  0  0  0  0  0  0
   -1.0971   -1.0537    5.3242 C   0  0  0  0  0  0  0  0  0  0  0  0
   -1.8094   -0.7046    6.4629 C   0  0  0  0  0  0  0  0  0  0  0  0
   -1.4914    0.4573    7.1490 C   0  0  0  0  0  0  0  0  0  0  0  0
   -0.4622    1.2678    6.6954 C   0  0  0  0  0  0  0  0  0  0  0  0
    0.2508    0.9115    5.5594 C   0  0  0  0  0  0  0  0  0  0  0  0
   -0.1485    2.4077    7.3655 O   0  0  0  0  0  0  0  0  0  0  0  0
   -2.8181   -1.5009    6.9049 O   0  0  0  0  0  0  0  0  0  0  0  0
    0.8214   -2.0480    3.5713 O   0  0  0  0  0  0  0  0  0  0  0  0
    1.0039    1.9031    0.0027 H   0  0  0  0  0  0  0  0  0  0  0  0
   -0.5459    1.8868   -0.8726 H   0  0  0  0  0  0  0  0  0  0  0  0
   -0.5289    1.8773    0.9072 H   0  0  0  0  0  0  0  0  0  0  0  0
    0.2444   -0.0644   -2.1377 H   0  0  0  0  0  0  0  0  0  0  0  0
    1.7648   -0.1951   -1.2215 H   0  0  0  0  0  0  0  0  0  0  0  0
    2.4395   -2.3054   -0.2281 H   0  0  0  0  0  0  0  0  0  0  0  0
    2.3024   -4.7604   -0.3424 H   0  0  0  0  0  0  0  0  0  0  0  0
   -1.3383   -4.4464   -2.5587 H   0  0  0  0  0  0  0  0  0  0  0  0
   -1.1987   -1.9921   -2.4319 H   0  0  0  0  0  0  0  0  0  0  0  0
   -0.0869   -6.5162   -0.7867 H   0  0  0  0  0  0  0  0  0  0  0  0
    0.7982   -1.4950    1.1455 H   0  0  0  0  0  0  0  0  0  0  0  0
   -0.1324    0.9660    2.4481 H   0  0  0  0  0  0  0  0  0  0  0  0
   -1.0328   -0.5668    2.3589 H   0  0  0  0  0  0  0  0  0  0  0  0
   -1.3447   -1.9586    4.7892 H   0  0  0  0  0  0  0  0  0  0  0  0
   -2.0448    0.7309    8.0352 H   0  0  0  0  0  0  0  0  0  0  0  0
    1.0556    1.5402    5.2081 H   0  0  0  0  0  0  0  0  0  0  0  0
    0.5165    2.2870    8.0571 H   0  0  0  0  0  0  0  0  0  0  0  0
   -2.5359   -2.1825    7.5302 H   0  0  0  0  0  0  0  0  0  0  0  0
   -0.0252   -2.5137    3.5341 H   0  0  0  0  0  0  0  0  0  0  0  0
    1.6317   -0.0761    1.2281 H   0  0  0  0  0  0  0  0  0  0  0  0
  1  2  1  0  0  0  0
  1 25  1  0  0  0  0
  1 26  1  0  0  0  0
  1 27  1  0  0  0  0
  2  3  1  1  0  0  0
  2  4  1  0  0  0  0
  2 12  1  0  0  0  0
  4  5  1  0  0  0  0
  4 28  1  0  0  0  0
  4 29  1  0  0  0  0
  5 10  2  0  0  0  0
  5  6  1  0  0  0  0
  6  7  2  0  0  0  0
  6 30  1  0  0  0  0
  7  8  1  0  0  0  0
  7 31  1  0  0  0  0
  8  9  2  0  0  0  0
  8 11  1  0  0  0  0
  9 10  1  0  0  0  0
  9 32  1  0  0  0  0
 10 33  1  0  0  0  0
 11 34  1  0  0  0  0
 12 13  1  0  0  0  0
 12 35  1  0  0  0  0
 12 44  1  0  0  0  0
 13 14  1  0  0  0  0
 13 36  1  0  0  0  0
 13 37  1  0  0  0  0
 14 15  1  1  0  0  0
 14 16  1  0  0  0  0
 14 24  1  0  0  0  0
 16 21  2  0  0  0  0
 16 17  1  0  0  0  0
 17 18  2  0  0  0  0
 17 38  1  0  0  0  0
 18 19  1  0  0  0  0
 18 23  1  0  0  0  0
 19 20  2  0  0  0  0
 19 39  1  0  0  0  0
 20 21  1  0  0  0  0
 20 22  1  0  0  0  0
 21 40  1  0  0  0  0
 22 41  1  0  0  0  0
 23 42  1  0  0  0  0
 24 43  1  0  0  0  0
M  CHG  1  12   1
M  END
$$$$
