ZINC21984080
 OpenBabel08292219463D

 35 37  0  0  0  0  0  0  0  0999 V2000
   -0.2832    1.5687    0.6243 C   0  0  0  0  0  0  0  0  0  0  0  0
   -0.2409    0.0395    0.5936 C   0  0  0  0  0  0  0  0  0  0  0  0
    0.3977   -0.4791    1.8836 C   0  0  0  0  0  0  0  0  0  0  0  0
   -1.6432   -0.4995    0.4753 C   0  0  0  0  0  0  0  0  0  0  0  0
   -2.5830   -0.2047    1.4515 C   0  0  0  0  0  0  0  0  0  0  0  0
   -3.8698   -0.6907    1.3618 C   0  0  0  0  0  0  0  0  0  0  0  0
   -4.2425   -1.4867    0.2829 C   0  0  0  0  0  0  0  0  0  0  0  0
   -3.2891   -1.7782   -0.7047 C   0  0  0  0  0  0  0  0  0  0  0  0
   -1.9917   -1.2802   -0.6060 C   0  0  0  0  0  0  0  0  0  0  0  0
   -3.7013   -2.6114   -1.8557 C   0  0  0  0  0  0  0  0  0  0  0  0
   -2.8932   -3.0929   -2.6283 O   0  0  0  0  0  0  0  0  0  0  0  0
   -5.1544   -2.8224   -2.0078 C   0  0  0  0  0  0  0  0  0  0  0  0
   -5.6834   -3.3599   -3.1784 C   0  0  0  0  0  0  0  0  0  0  0  0
   -7.0699   -3.5240   -3.2564 C   0  0  0  0  0  0  0  0  0  0  0  0
   -7.8617   -3.1374   -2.1533 C   0  0  0  0  0  0  0  0  0  0  0  0
   -7.3148   -2.6348   -1.0603 N   0  0  0  0  0  0  0  0  0  0  0  0
   -6.0033   -2.4669   -0.9408 C   0  0  0  0  0  0  0  0  0  0  0  0
   -5.4994   -1.9667    0.2028 O   0  0  0  0  0  0  0  0  0  0  0  0
   -9.2292   -3.2862   -2.2178 N   0  0  0  0  0  0  0  0  0  0  0  0
   -7.6907   -4.0875   -4.4630 C   0  0  0  0  0  0  0  0  0  0  0  0
   -7.0090   -4.3110   -5.4544 O   0  0  0  0  0  0  0  0  0  0  0  0
   -8.8894   -4.3334   -4.4766 O   0  0  0  0  0  1  0  0  0  0  0  0
    0.7311    1.9585    0.7099 H   0  0  0  0  0  0  0  0  0  0  0  0
   -0.7381    1.9381   -0.2947 H   0  0  0  0  0  0  0  0  0  0  0  0
   -0.8726    1.8987    1.4798 H   0  0  0  0  0  0  0  0  0  0  0  0
    0.3486   -0.2905   -0.2619 H   0  0  0  0  0  0  0  0  0  0  0  0
    0.4278   -1.5684    1.8616 H   0  0  0  0  0  0  0  0  0  0  0  0
    1.4120   -0.0892    1.9691 H   0  0  0  0  0  0  0  0  0  0  0  0
   -0.1917   -0.1491    2.7390 H   0  0  0  0  0  0  0  0  0  0  0  0
   -2.3035    0.4134    2.2919 H   0  0  0  0  0  0  0  0  0  0  0  0
   -4.5903   -0.4535    2.1307 H   0  0  0  0  0  0  0  0  0  0  0  0
   -1.2625   -1.5080   -1.3694 H   0  0  0  0  0  0  0  0  0  0  0  0
   -5.0424   -3.6416   -4.0007 H   0  0  0  0  0  0  0  0  0  0  0  0
   -9.6335   -3.7288   -2.9803 H   0  0  0  0  0  0  0  0  0  0  0  0
   -9.7882   -2.9483   -1.5006 H   0  0  0  0  0  0  0  0  0  0  0  0
  1  2  1  0  0  0  0
  1 23  1  0  0  0  0
  1 24  1  0  0  0  0
  1 25  1  0  0  0  0
  2  3  1  0  0  0  0
  2  4  1  0  0  0  0
  2 26  1  0  0  0  0
  3 27  1  0  0  0  0
  3 28  1  0  0  0  0
  3 29  1  0  0  0  0
  4  9  2  0  0  0  0
  4  5  1  0  0  0  0
  5  6  2  0  0  0  0
  5 30  1  0  0  0  0
  6  7  1  0  0  0  0
  6 31  1  0  0  0  0
  7 18  1  0  0  0  0
  7  8  2  0  0  0  0
  8  9  1  0  0  0  0
  8 10  1  0  0  0  0
  9 32  1  0  0  0  0
 10 11  2  0  0  0  0
 10 12  1  0  0  0  0
 12 17  2  0  0  0  0
 12 13  1  0  0  0  0
 13 14  2  0  0  0  0
 13 33  1  0  0  0  0
 14 15  1  0  0  0  0
 14 20  1  0  0  0  0
 15 16  2  0  0  0  0
 15 19  1  0  0  0  0
 16 17  1  0  0  0  0
 17 18  1  0  0  0  0
 19 34  1  0  0  0  0
 19 35  1  0  0  0  0
 20 21  2  0  0  0  0
 20 22  1  0  0  0  0
M  END
$$$$
