ZINC02015035
 OpenBabel08292219463D

 26 26  0  0  1  0  0  0  0  0999 V2000
   -0.0167    1.3779    0.0096 C   0  0  0  0  0  0  0  0  0  0  0  0
    1.1696    2.0886    0.0021 C   0  0  0  0  0  0  0  0  0  0  0  0
    2.3802    1.4154   -0.0130 C   0  0  0  0  0  0  0  0  0  0  0  0
    2.3990    0.0236   -0.0206 C   0  0  0  0  0  0  0  0  0  0  0  0
    1.2071   -0.6822   -0.0130 C   0  0  0  0  0  0  0  0  0  0  0  0
    0.0021   -0.0041    0.0020 C   0  0  0  0  0  0  0  0  0  0  0  0
   -1.2936   -0.7736    0.0102 C   0  0  1  0  0  0  0  0  0  0  0  0
   -1.1163   -1.7875   -0.3484 H   0  0  0  0  0  0  0  0  0  0  0  0
   -1.8465   -0.8263    1.4358 C   0  0  2  0  0  0  0  0  0  0  0  0
   -1.1259   -1.3211    2.0869 H   0  0  0  0  0  0  0  0  0  0  0  0
   -3.1422   -1.5958    1.4440 C   0  0  0  0  0  0  0  0  0  0  0  0
   -3.1371   -2.8001    1.2542 O   0  0  0  0  0  0  0  0  0  0  0  0
   -4.1955   -1.0140    1.6405 O   0  0  0  0  0  1  0  0  0  0  0  0
   -2.0855    0.5402    1.9192 N   0  3  0  0  0  0  0  0  0  0  0  0
   -2.2383   -0.1248   -0.8434 O   0  0  0  0  0  0  0  0  0  0  0  0
    3.5850   -0.6417   -0.0359 O   0  0  0  0  0  0  0  0  0  0  0  0
    3.5476    2.1129   -0.0209 O   0  0  0  0  0  0  0  0  0  0  0  0
   -0.9598    1.9038    0.0259 H   0  0  0  0  0  0  0  0  0  0  0  0
    1.1522    3.1684    0.0077 H   0  0  0  0  0  0  0  0  0  0  0  0
    1.2190   -1.7621   -0.0189 H   0  0  0  0  0  0  0  0  0  0  0  0
   -2.4501    0.5054    2.8594 H   0  0  0  0  0  0  0  0  0  0  0  0
   -1.2180    1.0554    1.9137 H   0  0  0  0  0  0  0  0  0  0  0  0
   -2.4443    0.7835   -0.5835 H   0  0  0  0  0  0  0  0  0  0  0  0
    3.9367   -0.8389    0.8430 H   0  0  0  0  0  0  0  0  0  0  0  0
    3.8938    2.3101    0.8602 H   0  0  0  0  0  0  0  0  0  0  0  0
   -2.7525    0.9983    1.3165 H   0  0  0  0  0  0  0  0  0  0  0  0
  1  6  2  0  0  0  0
  1  2  1  0  0  0  0
  1 18  1  0  0  0  0
  2  3  2  0  0  0  0
  2 19  1  0  0  0  0
  3  4  1  0  0  0  0
  3 17  1  0  0  0  0
  4  5  2  0  0  0  0
  4 16  1  0  0  0  0
  5  6  1  0  0  0  0
  5 20  1  0  0  0  0
  6  7  1  0  0  0  0
  7  8  1  6  0  0  0
  7  9  1  0  0  0  0
  7 15  1  0  0  0  0
  9 10  1  1  0  0  0
  9 11  1  0  0  0  0
  9 14  1  0  0  0  0
 11 12  2  0  0  0  0
 11 13  1  0  0  0  0
 14 21  1  0  0  0  0
 14 22  1  0  0  0  0
 14 26  1  0  0  0  0
 15 23  1  0  0  0  0
 16 24  1  0  0  0  0
 17 25  1  0  0  0  0
M  CHG  1  14   1
M  END
$$$$
