ZINC38142442
 OpenBabel08292219463D

 39 41  0  0  1  0  0  0  0  0999 V2000
   -0.0666    1.1149    0.0839 C   0  0  0  0  0  0  0  0  0  0  0  0
    1.0721    1.8974    0.0415 C   0  0  0  0  0  0  0  0  0  0  0  0
    2.3192    1.3019    0.0096 C   0  0  0  0  0  0  0  0  0  0  0  0
    2.4276   -0.0761    0.0205 C   0  0  0  0  0  0  0  0  0  0  0  0
    1.2890   -0.8587    0.0638 C   0  0  0  0  0  0  0  0  0  0  0  0
    0.0418   -0.2632    0.0943 C   0  0  0  0  0  0  0  0  0  0  0  0
    3.7872   -0.7253   -0.0153 C   0  0  2  0  0  0  0  0  0  0  0  0
    4.5415   -0.0067    0.3053 H   0  0  0  0  0  0  0  0  0  0  0  0
    4.0904   -1.1788   -1.4201 C   0  0  0  0  0  0  0  0  0  0  0  0
    3.9413   -2.3426   -1.7270 O   0  0  0  0  0  0  0  0  0  0  0  0
    4.5274   -0.2912   -2.3353 N   0  0  0  0  0  0  0  0  0  0  0  0
    4.8222   -0.7321   -3.7009 C   0  0  1  0  0  0  0  0  0  0  0  0
    5.0896   -1.7876   -3.7509 H   0  0  0  0  0  0  0  0  0  0  0  0
    3.7499   -0.3372   -4.7029 C   0  0  1  0  0  0  0  0  0  0  0  0
    3.4827   -1.0989   -5.4354 H   0  0  0  0  0  0  0  0  0  0  0  0
    2.5634    0.4722   -4.1569 C   0  0  0  0  0  0  0  0  0  0  0  0
    2.0852    1.4165   -5.2609 C   0  0  0  0  0  0  0  0  0  0  0  0
    3.1855    2.1689   -5.9383 C   0  0  0  0  0  0  0  0  0  0  0  0
    4.4847    1.8235   -5.8929 C   0  0  0  0  0  0  0  0  0  0  0  0
    4.7759    0.6609   -5.1242 N   0  0  0  0  0  0  0  0  0  0  0  0
    5.8044    0.1671   -4.4193 C   0  0  0  0  0  0  0  0  0  0  0  0
    7.0017    0.3567   -4.3757 O   0  0  0  0  0  0  0  0  0  0  0  0
    5.5290    2.5773   -6.5986 C   0  0  0  0  0  0  0  0  0  0  0  0
    5.2309    3.5625   -7.2609 O   0  0  0  0  0  0  0  0  0  0  0  0
    6.6974    2.2204   -6.5244 O   0  0  0  0  0  1  0  0  0  0  0  0
    2.7567    3.5851   -6.8462 Cl  0  0  0  0  0  0  0  0  0  0  0  0
    3.8002   -1.8844    0.8871 N   0  0  0  0  0  0  0  0  0  0  0  0
   -1.0408    1.5801    0.1133 H   0  0  0  0  0  0  0  0  0  0  0  0
    0.9874    2.9741    0.0330 H   0  0  0  0  0  0  0  0  0  0  0  0
    3.2089    1.9133   -0.0242 H   0  0  0  0  0  0  0  0  0  0  0  0
    1.3736   -1.9353    0.0719 H   0  0  0  0  0  0  0  0  0  0  0  0
   -0.8478   -0.8746    0.1277 H   0  0  0  0  0  0  0  0  0  0  0  0
    4.6467    0.6396   -2.0897 H   0  0  0  0  0  0  0  0  0  0  0  0
    1.7558   -0.2032   -3.8747 H   0  0  0  0  0  0  0  0  0  0  0  0
    2.8806    1.0507   -3.2893 H   0  0  0  0  0  0  0  0  0  0  0  0
    1.5517    0.8321   -6.0105 H   0  0  0  0  0  0  0  0  0  0  0  0
    1.3901    2.1348   -4.8261 H   0  0  0  0  0  0  0  0  0  0  0  0
    3.6633   -1.5985    1.8450 H   0  0  0  0  0  0  0  0  0  0  0  0
    3.1091   -2.5656    0.6107 H   0  0  0  0  0  0  0  0  0  0  0  0
  1  6  2  0  0  0  0
  1  2  1  0  0  0  0
  1 28  1  0  0  0  0
  2  3  2  0  0  0  0
  2 29  1  0  0  0  0
  3  4  1  0  0  0  0
  3 30  1  0  0  0  0
  4  5  2  0  0  0  0
  4  7  1  0  0  0  0
  5  6  1  0  0  0  0
  5 31  1  0  0  0  0
  6 32  1  0  0  0  0
  7  8  1  1  0  0  0
  7  9  1  0  0  0  0
  7 27  1  0  0  0  0
  9 10  2  0  0  0  0
  9 11  1  0  0  0  0
 11 12  1  0  0  0  0
 11 33  1  0  0  0  0
 12 13  1  6  0  0  0
 12 21  1  0  0  0  0
 12 14  1  0  0  0  0
 14 15  1  6  0  0  0
 14 20  1  0  0  0  0
 14 16  1  0  0  0  0
 16 17  1  0  0  0  0
 16 34  1  0  0  0  0
 16 35  1  0  0  0  0
 17 18  1  0  0  0  0
 17 36  1  0  0  0  0
 17 37  1  0  0  0  0
 18 19  2  0  0  0  0
 18 26  1  0  0  0  0
 19 20  1  0  0  0  0
 19 23  1  0  0  0  0
 20 21  1  0  0  0  0
 21 22  2  0  0  0  0
 23 24  2  0  0  0  0
 23 25  1  0  0  0  0
 27 38  1  0  0  0  0
 27 39  1  0  0  0  0
M  END
$$$$
