ZINC04693575
 OpenBabel08292219463D

 44 46  0  0  0  0  0  0  0  0999 V2000
   -0.0184    1.5028    0.0103 C   0  0  0  0  0  0  0  0  0  0  0  0
    0.0021   -0.0041    0.0020 C   0  0  0  0  0  0  0  0  0  0  0  0
    0.0060   -0.6969   -1.1913 C   0  0  0  0  0  3  0  0  0  0  0  0
    0.0243   -2.0162   -1.2071 N   0  0  0  0  0  0  0  0  0  0  0  0
    0.0391   -2.7261   -0.0946 C   0  0  0  0  0  0  0  0  0  0  0  0
    0.0364   -2.1077    1.1386 C   0  0  0  0  0  0  0  0  0  0  0  0
    0.0231   -0.7162    1.1984 C   0  0  0  0  0  0  0  0  0  0  0  0
    0.0252   -0.0709    2.3926 O   0  0  0  0  0  0  0  0  0  0  0  0
   -1.2469    0.2198    2.9751 C   0  0  0  0  0  0  0  0  0  0  0  0
    0.0534   -2.9265    2.4036 C   0  0  0  0  0  0  0  0  0  0  0  0
    0.0587   -4.2309   -0.1724 C   0  0  0  0  0  0  0  0  0  0  0  0
    1.7767   -4.8120   -0.2119 S   0  0  2  0  0  0  0  0  0  0  0  0
    2.3700   -4.4523   -1.4519 O   0  0  0  0  0  0  0  0  0  0  0  0
    1.6315   -6.5658   -0.3016 C   0  0  0  0  0  0  0  0  0  0  0  0
    1.5680   -7.3992    0.7731 N   0  0  0  0  0  0  0  0  0  0  0  0
    1.5939   -7.1367    1.7065 H   0  0  0  0  0  0  0  0  0  0  0  0
    1.4593   -8.6871    0.2879 C   0  0  0  0  0  0  0  0  0  0  0  0
    1.3595   -9.9376    0.8821 C   0  0  0  0  0  0  0  0  0  0  0  0
    1.2628  -11.0663    0.0887 C   0  0  0  0  0  0  0  0  0  0  0  0
    1.2654  -10.9527   -1.2989 C   0  0  0  0  0  0  0  0  0  0  0  0
    1.3631   -9.7287   -1.8962 C   0  0  0  0  0  0  0  0  0  0  0  0
    1.4617   -8.5756   -1.1127 C   0  0  0  0  0  0  0  0  0  0  0  0
    1.5638   -7.2524   -1.4041 N   0  0  0  0  0  0  0  0  0  0  0  0
    1.1653  -12.2929    0.6667 O   0  0  0  0  0  0  0  0  0  0  0  0
    1.0686  -13.4173   -0.2099 C   0  0  0  0  0  0  0  0  0  0  0  0
    1.0042    1.8801    0.0026 H   0  0  0  0  0  0  0  0  0  0  0  0
   -0.5455    1.8639   -0.8728 H   0  0  0  0  0  0  0  0  0  0  0  0
   -0.5286    1.8543    0.9071 H   0  0  0  0  0  0  0  0  0  0  0  0
   -0.0064   -0.1526   -2.1241 H   0  0  0  0  0  0  0  0  0  0  0  0
   -1.7894   -0.7101    3.1457 H   0  0  0  0  0  0  0  0  0  0  0  0
   -1.1025    0.7356    3.9244 H   0  0  0  0  0  0  0  0  0  0  0  0
   -1.8191    0.8557    2.2995 H   0  0  0  0  0  0  0  0  0  0  0  0
    1.0850   -3.1100    2.7039 H   0  0  0  0  0  0  0  0  0  0  0  0
   -0.4642   -2.3838    3.1946 H   0  0  0  0  0  0  0  0  0  0  0  0
   -0.4484   -3.8780    2.2274 H   0  0  0  0  0  0  0  0  0  0  0  0
   -0.4454   -4.6464    0.7001 H   0  0  0  0  0  0  0  0  0  0  0  0
   -0.4552   -4.5547   -1.0774 H   0  0  0  0  0  0  0  0  0  0  0  0
    1.3576  -10.0286    1.9583 H   0  0  0  0  0  0  0  0  0  0  0  0
    1.1898  -11.8409   -1.9085 H   0  0  0  0  0  0  0  0  0  0  0  0
    1.3638   -9.6516   -2.9734 H   0  0  0  0  0  0  0  0  0  0  0  0
    0.1807  -13.3162   -0.8340 H   0  0  0  0  0  0  0  0  0  0  0  0
    1.9547  -13.4616   -0.8432 H   0  0  0  0  0  0  0  0  0  0  0  0
    0.9967  -14.3319    0.3788 H   0  0  0  0  0  0  0  0  0  0  0  0
    0.0266   -2.4773   -2.0604 H   0  0  0  0  0  0  0  0  0  0  0  0
  1  2  1  0  0  0  0
  1 26  1  0  0  0  0
  1 27  1  0  0  0  0
  1 28  1  0  0  0  0
  2  7  2  0  0  0  0
  2  3  1  0  0  0  0
  3  4  1  0  0  0  0
  3 29  1  0  0  0  0
  4  5  1  0  0  0  0
  4 44  1  0  0  0  0
  5  6  2  0  0  0  0
  5 11  1  0  0  0  0
  6  7  1  0  0  0  0
  6 10  1  0  0  0  0
  7  8  1  0  0  0  0
  8  9  1  0  0  0  0
  9 30  1  0  0  0  0
  9 31  1  0  0  0  0
  9 32  1  0  0  0  0
 10 33  1  0  0  0  0
 10 34  1  0  0  0  0
 10 35  1  0  0  0  0
 11 12  1  0  0  0  0
 11 36  1  0  0  0  0
 11 37  1  0  0  0  0
 12 13  2  6  0  0  0
 12 14  1  0  0  0  0
 14 23  2  0  0  0  0
 14 15  1  0  0  0  0
 15 16  1  0  0  0  0
 15 17  1  0  0  0  0
 17 22  2  0  0  0  0
 17 18  1  0  0  0  0
 18 19  2  0  0  0  0
 18 38  1  0  0  0  0
 19 20  1  0  0  0  0
 19 24  1  0  0  0  0
 20 21  2  0  0  0  0
 20 39  1  0  0  0  0
 21 22  1  0  0  0  0
 21 40  1  0  0  0  0
 22 23  1  0  0  0  0
 24 25  1  0  0  0  0
 25 41  1  0  0  0  0
 25 42  1  0  0  0  0
 25 43  1  0  0  0  0
M  END
$$$$
