ZINC01530725
 OpenBabel08292219463D

 28 29  0  0  1  0  0  0  0  0999 V2000
   -0.1607    0.9860   -0.4256 C   0  0  0  0  0  0  0  0  0  0  0  0
    1.0606    1.6337   -0.4012 C   0  0  0  0  0  0  0  0  0  0  0  0
    1.1130    3.0042   -0.2313 C   0  0  0  0  0  0  0  0  0  0  0  0
   -0.0572    3.7283   -0.0860 C   0  0  0  0  0  0  0  0  0  0  0  0
   -1.2788    3.0798   -0.1110 C   0  0  0  0  0  0  0  0  0  0  0  0
   -1.3302    1.7095   -0.2862 C   0  0  0  0  0  0  0  0  0  0  0  0
   -2.5537    3.8677    0.0468 C   0  0  1  0  0  0  0  0  0  0  0  0
   -2.3219    4.9324    0.0736 H   0  0  0  0  0  0  0  0  0  0  0  0
   -3.4681    3.5819   -1.1166 C   0  0  0  0  0  0  0  0  0  0  0  0
   -3.9679    2.3069   -1.3055 C   0  0  0  0  0  0  0  0  0  0  0  0
   -4.8110    2.0455   -2.3691 C   0  0  0  0  0  0  0  0  0  0  0  0
   -5.1457    3.0575   -3.2511 C   0  0  0  0  0  0  0  0  0  0  0  0
   -4.6406    4.3319   -3.0647 C   0  0  0  0  0  0  0  0  0  0  0  0
   -3.8021    4.5935   -1.9976 C   0  0  0  0  0  0  0  0  0  0  0  0
   -6.1985    2.7281   -4.5916 Cl  0  0  0  0  0  0  0  0  0  0  0  0
   -3.2453    3.4633    1.3503 C   0  0  0  0  0  0  0  0  0  0  0  0
   -4.8662    4.2477    1.4391 Cl  0  0  0  0  0  0  0  0  0  0  0  0
   -3.4414    1.6715    1.3958 Cl  0  0  0  0  0  0  0  0  0  0  0  0
    0.0078    5.4498    0.1281 Cl  0  0  0  0  0  0  0  0  0  0  0  0
   -0.2011   -0.0850   -0.5581 H   0  0  0  0  0  0  0  0  0  0  0  0
    1.9738    1.0685   -0.5146 H   0  0  0  0  0  0  0  0  0  0  0  0
    2.0670    3.5099   -0.2116 H   0  0  0  0  0  0  0  0  0  0  0  0
   -2.2841    1.2036   -0.3102 H   0  0  0  0  0  0  0  0  0  0  0  0
   -3.7030    1.5160   -0.6195 H   0  0  0  0  0  0  0  0  0  0  0  0
   -5.2050    1.0504   -2.5141 H   0  0  0  0  0  0  0  0  0  0  0  0
   -4.9013    5.1222   -3.7532 H   0  0  0  0  0  0  0  0  0  0  0  0
   -3.4075    5.5882   -1.8522 H   0  0  0  0  0  0  0  0  0  0  0  0
   -2.6394    3.7841    2.1977 H   0  0  0  0  0  0  0  0  0  0  0  0
  1  6  2  0  0  0  0
  1  2  1  0  0  0  0
  1 20  1  0  0  0  0
  2  3  2  0  0  0  0
  2 21  1  0  0  0  0
  3  4  1  0  0  0  0
  3 22  1  0  0  0  0
  4  5  2  0  0  0  0
  4 19  1  0  0  0  0
  5  6  1  0  0  0  0
  5  7  1  0  0  0  0
  6 23  1  0  0  0  0
  7  8  1  1  0  0  0
  7  9  1  0  0  0  0
  7 16  1  0  0  0  0
  9 14  2  0  0  0  0
  9 10  1  0  0  0  0
 10 11  2  0  0  0  0
 10 24  1  0  0  0  0
 11 12  1  0  0  0  0
 11 25  1  0  0  0  0
 12 13  2  0  0  0  0
 12 15  1  0  0  0  0
 13 14  1  0  0  0  0
 13 26  1  0  0  0  0
 14 27  1  0  0  0  0
 16 17  1  0  0  0  0
 16 18  1  0  0  0  0
 16 28  1  0  0  0  0
M  END
$$$$
