ZINC31771386
 OpenBabel08292219463D

 40 44  0  0  1  0  0  0  0  0999 V2000
   -1.1123    0.3017    2.0823 C   0  0  0  0  0  0  0  0  0  0  0  0
   -0.6245    1.5329    1.3161 C   0  0  1  0  0  0  0  0  0  0  0  0
   -0.0127    1.0858    0.0080 C   0  0  1  0  0  0  0  0  0  0  0  0
   -0.0257   -0.0130   -0.0407 H   0  0  0  0  0  0  0  0  0  0  0  0
   -0.7657    1.5498   -1.2285 C   0  0  2  0  0  0  0  0  0  0  0  0
   -0.1746    1.3750   -2.1396 H   0  0  0  0  0  0  0  0  0  0  0  0
   -1.1398    3.0081   -1.0599 C   0  0  2  0  0  0  0  0  0  0  0  0
   -0.3330    3.6818   -0.7355 H   0  0  0  0  0  0  0  0  0  0  0  0
   -2.3313    2.7768   -0.0860 C   0  0  2  0  0  0  0  0  0  0  0  0
   -3.0884    3.5735   -0.0402 H   0  0  0  0  0  0  0  0  0  0  0  0
   -1.7171    2.5718    1.3011 C   0  0  2  0  0  0  0  0  0  0  0  0
   -1.1004    3.9006    1.7675 C   0  0  0  0  0  0  0  0  0  0  0  0
    0.2365    3.5966    2.4236 C   0  0  2  0  0  0  0  0  0  0  0  0
    0.5954    4.6363    2.4398 H   0  0  0  0  0  0  0  0  0  0  0  0
    0.5799    2.1411    2.0716 C   0  0  1  0  0  0  0  0  0  0  0  0
    0.4911    2.6079    3.3984 O   0  0  0  0  0  0  0  0  0  0  0  0
    1.7824    1.7097    1.2768 C   0  0  0  0  0  0  0  0  0  0  0  0
    2.9018    1.5400    1.6987 O   0  0  0  0  0  0  0  0  0  0  0  0
    1.3683    1.5478   -0.0027 O   0  0  0  0  0  0  0  0  0  0  0  0
   -2.7402    2.1785    2.2179 O   0  0  0  0  0  0  0  0  0  0  0  0
   -2.9158    1.4653   -0.5731 C   0  0  0  0  0  0  0  0  0  0  0  0
   -4.0389    1.0767   -0.3550 O   0  0  0  0  0  0  0  0  0  0  0  0
   -2.0378    0.8197   -1.2568 O   0  0  0  0  0  0  0  0  0  0  0  0
   -1.6017    3.6294   -2.3796 C   0  0  0  0  0  0  0  0  0  0  0  0
   -0.4167    3.7198   -3.3431 C   0  0  0  0  0  0  0  0  0  0  0  0
   -2.6965    2.7577   -2.9981 C   0  0  0  0  0  0  0  0  0  0  0  0
   -2.1175    4.9394   -2.1346 O   0  0  0  0  0  0  0  0  0  0  0  0
   -0.3186   -0.4597    2.0962 H   0  0  0  0  0  0  0  0  0  0  0  0
   -2.0050   -0.1082    1.5873 H   0  0  0  0  0  0  0  0  0  0  0  0
   -1.3640    0.5879    3.1141 H   0  0  0  0  0  0  0  0  0  0  0  0
   -0.9553    4.5618    0.9004 H   0  0  0  0  0  0  0  0  0  0  0  0
   -1.7751    4.3848    2.4889 H   0  0  0  0  0  0  0  0  0  0  0  0
   -3.6307    2.8101    2.3523 H   0  0  0  0  0  0  0  0  0  0  0  0
   -0.7488    4.1665   -4.2919 H   0  0  0  0  0  0  0  0  0  0  0  0
   -0.0197    2.7114   -3.5317 H   0  0  0  0  0  0  0  0  0  0  0  0
    0.3704    4.3465   -2.8984 H   0  0  0  0  0  0  0  0  0  0  0  0
   -3.0286    3.2044   -3.9469 H   0  0  0  0  0  0  0  0  0  0  0  0
   -3.5485    2.6927   -2.3054 H   0  0  0  0  0  0  0  0  0  0  0  0
   -2.2995    1.7493   -3.1867 H   0  0  0  0  0  0  0  0  0  0  0  0
   -2.4995    5.5451   -2.9696 H   0  0  0  0  0  0  0  0  0  0  0  0
  1 28  1  0  0  0  0
  1 29  1  0  0  0  0
  1 30  1  0  0  0  0
  2  1  1  1  0  0  0
  2 11  1  0  0  0  0
  2 15  1  0  0  0  0
  2  3  1  0  0  0  0
  3  4  1  6  0  0  0
  3 19  1  0  0  0  0
  3  5  1  0  0  0  0
  5  6  1  6  0  0  0
  5 23  1  0  0  0  0
  5  7  1  0  0  0  0
  7  8  1  1  0  0  0
  7  9  1  0  0  0  0
  7 24  1  0  0  0  0
  9 10  1  6  0  0  0
  9 11  1  0  0  0  0
  9 21  1  0  0  0  0
 11 12  1  0  0  0  0
 11 20  1  1  0  0  0
 12 13  1  0  0  0  0
 12 31  1  0  0  0  0
 12 32  1  0  0  0  0
 13 14  1  6  0  0  0
 13 16  1  0  0  0  0
 13 15  1  0  0  0  0
 15 16  1  1  0  0  0
 15 17  1  0  0  0  0
 17 18  2  0  0  0  0
 17 19  1  0  0  0  0
 20 33  1  0  0  0  0
 21 22  2  0  0  0  0
 21 23  1  0  0  0  0
 24 25  1  0  0  0  0
 24 26  1  0  0  0  0
 24 27  1  0  0  0  0
 25 34  1  0  0  0  0
 25 35  1  0  0  0  0
 25 36  1  0  0  0  0
 26 37  1  0  0  0  0
 26 38  1  0  0  0  0
 26 39  1  0  0  0  0
 27 40  1  0  0  0  0
M  END
$$$$
