ZINC00601229
 OpenBabel08292219463D

 52 55  0  0  1  0  0  0  0  0999 V2000
   -0.0178    1.4648    0.0101 C   0  0  0  0  0  0  0  0  0  0  0  0
    0.0021   -0.0041    0.0020 N   0  3  1  0  0  0  0  0  0  0  0  0
    0.6286   -0.4584   -1.2156 C   0  0  0  0  0  0  0  0  0  0  0  0
   -0.1084   -1.7246   -1.6814 C   0  0  0  0  0  0  0  0  0  0  0  0
    0.3657   -2.9370   -1.0256 C   0  0  0  0  0  0  0  0  0  0  0  0
    0.1450   -2.8629    0.5060 C   0  0  2  0  0  0  0  0  0  0  0  0
   -0.8511   -2.4718    0.7129 H   0  0  0  0  0  0  0  0  0  0  0  0
    1.1803   -1.9473    1.1025 C   0  0  0  0  0  0  0  0  0  0  0  0
    0.7191   -0.4822    1.2035 C   0  0  0  0  0  0  0  0  0  0  0  0
    0.2771   -4.2016    1.0863 N   0  0  0  0  0  0  0  0  0  0  0  0
   -0.7729   -4.7402    1.7407 C   0  0  0  0  0  0  0  0  0  0  0  0
   -1.8183   -4.1247    1.8497 O   0  0  0  0  0  0  0  0  0  0  0  0
   -0.6314   -6.0824    2.3186 C   0  0  0  0  0  0  0  0  0  0  0  0
   -1.6719   -6.7038    3.0078 C   0  0  0  0  0  0  0  0  0  0  0  0
   -1.4801   -7.9651    3.5278 C   0  0  0  0  0  0  0  0  0  0  0  0
   -0.2646   -8.6189    3.3722 C   0  0  0  0  0  0  0  0  0  0  0  0
    0.7692   -8.0289    2.7003 C   0  0  0  0  0  0  0  0  0  0  0  0
    0.6040   -6.7514    2.1619 C   0  0  0  0  0  0  0  0  0  0  0  0
    1.6779   -6.0755    1.4337 C   0  0  0  0  0  0  0  0  0  0  0  0
    1.4832   -4.8879    0.9427 N   0  0  0  0  0  0  0  0  0  0  0  0
    3.0081   -6.7589    1.2475 C   0  0  0  0  0  0  0  0  0  0  0  0
    3.9318   -5.8569    0.4702 C   0  0  0  0  0  0  0  0  0  0  0  0
    3.9602   -5.9215   -0.9104 C   0  0  0  0  0  0  0  0  0  0  0  0
    4.8072   -5.0945   -1.6239 C   0  0  0  0  0  0  0  0  0  0  0  0
    5.6266   -4.2019   -0.9561 C   0  0  0  0  0  0  0  0  0  0  0  0
    5.5977   -4.1378    0.4257 C   0  0  0  0  0  0  0  0  0  0  0  0
    4.7462   -4.9614    1.1378 C   0  0  0  0  0  0  0  0  0  0  0  0
    6.6911   -3.1633   -1.8515 Cl  0  0  0  0  0  0  0  0  0  0  0  0
    1.0047    1.8421    0.0024 H   0  0  0  0  0  0  0  0  0  0  0  0
   -0.5450    1.8259   -0.8730 H   0  0  0  0  0  0  0  0  0  0  0  0
   -0.5280    1.8163    0.9069 H   0  0  0  0  0  0  0  0  0  0  0  0
    0.5529    0.3148   -1.9802 H   0  0  0  0  0  0  0  0  0  0  0  0
    1.6768   -0.6901   -1.0269 H   0  0  0  0  0  0  0  0  0  0  0  0
   -1.1721   -1.6072   -1.4742 H   0  0  0  0  0  0  0  0  0  0  0  0
    0.0265   -1.8327   -2.7576 H   0  0  0  0  0  0  0  0  0  0  0  0
   -0.1761   -3.7948   -1.4242 H   0  0  0  0  0  0  0  0  0  0  0  0
    1.4295   -3.0610   -1.2283 H   0  0  0  0  0  0  0  0  0  0  0  0
    1.4283   -2.3048    2.1019 H   0  0  0  0  0  0  0  0  0  0  0  0
    2.0790   -1.9887    0.4871 H   0  0  0  0  0  0  0  0  0  0  0  0
    1.5938    0.1487    1.3619 H   0  0  0  0  0  0  0  0  0  0  0  0
    0.0599   -0.3826    2.0659 H   0  0  0  0  0  0  0  0  0  0  0  0
   -2.6195   -6.2010    3.1332 H   0  0  0  0  0  0  0  0  0  0  0  0
   -2.2833   -8.4504    4.0625 H   0  0  0  0  0  0  0  0  0  0  0  0
   -0.1344   -9.6071    3.7881 H   0  0  0  0  0  0  0  0  0  0  0  0
    1.7092   -8.5484    2.5864 H   0  0  0  0  0  0  0  0  0  0  0  0
    3.4456   -6.9740    2.2224 H   0  0  0  0  0  0  0  0  0  0  0  0
    2.8645   -7.6906    0.7002 H   0  0  0  0  0  0  0  0  0  0  0  0
    3.3207   -6.6185   -1.4316 H   0  0  0  0  0  0  0  0  0  0  0  0
    4.8296   -5.1453   -2.7024 H   0  0  0  0  0  0  0  0  0  0  0  0
    6.2374   -3.4415    0.9475 H   0  0  0  0  0  0  0  0  0  0  0  0
    4.7201   -4.9080    2.2161 H   0  0  0  0  0  0  0  0  0  0  0  0
   -0.9471   -0.3452    0.0287 H   0  0  0  0  0  0  0  0  0  0  0  0
  1  2  1  0  0  0  0
  1 29  1  0  0  0  0
  1 30  1  0  0  0  0
  1 31  1  0  0  0  0
  2  9  1  0  0  0  0
  2  3  1  0  0  0  0
  2 52  1  1  0  0  0
  3  4  1  0  0  0  0
  3 32  1  0  0  0  0
  3 33  1  0  0  0  0
  4  5  1  0  0  0  0
  4 34  1  0  0  0  0
  4 35  1  0  0  0  0
  5  6  1  0  0  0  0
  5 36  1  0  0  0  0
  5 37  1  0  0  0  0
  6  7  1  1  0  0  0
  6  8  1  0  0  0  0
  6 10  1  0  0  0  0
  8  9  1  0  0  0  0
  8 38  1  0  0  0  0
  8 39  1  0  0  0  0
  9 40  1  0  0  0  0
  9 41  1  0  0  0  0
 10 20  1  0  0  0  0
 10 11  1  0  0  0  0
 11 12  2  0  0  0  0
 11 13  1  0  0  0  0
 13 18  2  0  0  0  0
 13 14  1  0  0  0  0
 14 15  2  0  0  0  0
 14 42  1  0  0  0  0
 15 16  1  0  0  0  0
 15 43  1  0  0  0  0
 16 17  2  0  0  0  0
 16 44  1  0  0  0  0
 17 18  1  0  0  0  0
 17 45  1  0  0  0  0
 18 19  1  0  0  0  0
 19 20  2  0  0  0  0
 19 21  1  0  0  0  0
 21 22  1  0  0  0  0
 21 46  1  0  0  0  0
 21 47  1  0  0  0  0
 22 27  2  0  0  0  0
 22 23  1  0  0  0  0
 23 24  2  0  0  0  0
 23 48  1  0  0  0  0
 24 25  1  0  0  0  0
 24 49  1  0  0  0  0
 25 26  2  0  0  0  0
 25 28  1  0  0  0  0
 26 27  1  0  0  0  0
 26 50  1  0  0  0  0
 27 51  1  0  0  0  0
M  CHG  1   2   1
M  END
$$$$
