ZINC00000215
 OpenBabel08292219463D

 35 35  0  0  1  0  0  0  0  0999 V2000
   -0.7493   -0.9753   -0.2934 C   0  0  0  0  0  0  0  0  0  0  0  0
    0.4172   -0.0548    0.0711 C   0  0  0  0  0  0  0  0  0  0  0  0
    0.8774   -0.3629    1.4318 N   0  3  0  0  0  0  0  0  0  0  0  0
   -0.1833   -0.0344    2.3935 C   0  0  0  0  0  0  0  0  0  0  0  0
   -0.4208    1.4771    2.3943 C   0  0  0  0  0  0  0  0  0  0  0  0
    1.1997   -1.7929    1.5277 C   0  0  1  0  0  0  0  0  0  0  0  0
    0.3103   -2.3816    1.3029 H   0  0  0  0  0  0  0  0  0  0  0  0
    2.3044   -2.1351    0.5260 C   0  0  0  0  0  0  0  0  0  0  0  0
    1.6717   -2.1089    2.9235 C   0  0  0  0  0  0  0  0  0  0  0  0
    1.9939   -1.2113    3.6723 O   0  0  0  0  0  0  0  0  0  0  0  0
    1.7417   -3.5069    3.3778 C   0  0  0  0  0  0  0  0  0  0  0  0
    1.3764   -4.5454    2.5152 C   0  0  0  0  0  0  0  0  0  0  0  0
    1.4451   -5.8527    2.9481 C   0  0  0  0  0  0  0  0  0  0  0  0
    1.8742   -6.1385    4.2326 C   0  0  0  0  0  0  0  0  0  0  0  0
    2.2369   -5.1164    5.0924 C   0  0  0  0  0  0  0  0  0  0  0  0
    2.1792   -3.8043    4.6724 C   0  0  0  0  0  0  0  0  0  0  0  0
   -1.5494   -0.8544    0.4369 H   0  0  0  0  0  0  0  0  0  0  0  0
   -1.1203   -0.7164   -1.2850 H   0  0  0  0  0  0  0  0  0  0  0  0
   -0.4092   -2.0109   -0.2916 H   0  0  0  0  0  0  0  0  0  0  0  0
    1.2352   -0.2089   -0.6327 H   0  0  0  0  0  0  0  0  0  0  0  0
    0.0889    0.9835    0.0250 H   0  0  0  0  0  0  0  0  0  0  0  0
   -1.1026   -0.5465    2.1095 H   0  0  0  0  0  0  0  0  0  0  0  0
    0.1183   -0.3553    3.3906 H   0  0  0  0  0  0  0  0  0  0  0  0
   -1.1227    1.7342    3.1875 H   0  0  0  0  0  0  0  0  0  0  0  0
    0.5241    1.9933    2.5639 H   0  0  0  0  0  0  0  0  0  0  0  0
   -0.8330    1.7806    1.4319 H   0  0  0  0  0  0  0  0  0  0  0  0
    1.9629   -1.9065   -0.4836 H   0  0  0  0  0  0  0  0  0  0  0  0
    3.1938   -1.5463    0.7508 H   0  0  0  0  0  0  0  0  0  0  0  0
    2.5435   -3.1961    0.5972 H   0  0  0  0  0  0  0  0  0  0  0  0
    1.0411   -4.3239    1.5128 H   0  0  0  0  0  0  0  0  0  0  0  0
    1.1631   -6.6558    2.2833 H   0  0  0  0  0  0  0  0  0  0  0  0
    1.9258   -7.1645    4.5658 H   0  0  0  0  0  0  0  0  0  0  0  0
    2.5704   -5.3474    6.0933 H   0  0  0  0  0  0  0  0  0  0  0  0
    2.4669   -3.0080    5.3430 H   0  0  0  0  0  0  0  0  0  0  0  0
    1.7007    0.1821    1.6398 H   0  0  0  0  0  0  0  0  0  0  0  0
  1  2  1  0  0  0  0
  1 17  1  0  0  0  0
  1 18  1  0  0  0  0
  1 19  1  0  0  0  0
  2  3  1  0  0  0  0
  2 20  1  0  0  0  0
  2 21  1  0  0  0  0
  3  4  1  0  0  0  0
  3  6  1  0  0  0  0
  3 35  1  0  0  0  0
  4  5  1  0  0  0  0
  4 22  1  0  0  0  0
  4 23  1  0  0  0  0
  5 24  1  0  0  0  0
  5 25  1  0  0  0  0
  5 26  1  0  0  0  0
  6  7  1  6  0  0  0
  6  8  1  0  0  0  0
  6  9  1  0  0  0  0
  8 27  1  0  0  0  0
  8 28  1  0  0  0  0
  8 29  1  0  0  0  0
  9 10  2  0  0  0  0
  9 11  1  0  0  0  0
 11 16  2  0  0  0  0
 11 12  1  0  0  0  0
 12 13  2  0  0  0  0
 12 30  1  0  0  0  0
 13 14  1  0  0  0  0
 13 31  1  0  0  0  0
 14 15  2  0  0  0  0
 14 32  1  0  0  0  0
 15 16  1  0  0  0  0
 15 33  1  0  0  0  0
 16 34  1  0  0  0  0
M  CHG  1   3   1
M  END
$$$$
