ZINC03830842
 OpenBabel08292219463D

 49 50  0  0  1  0  0  0  0  0999 V2000
   -0.0168    1.3850    0.0097 C   0  0  0  0  0  0  0  0  0  0  0  0
    1.1653    2.0985    0.0022 C   0  0  0  0  0  0  0  0  0  0  0  0
    2.3808    1.4320   -0.0130 C   0  0  0  0  0  0  0  0  0  0  0  0
    2.4070    0.0310   -0.0208 C   0  0  0  0  0  0  0  0  0  0  0  0
    1.2066   -0.6830   -0.0132 C   0  0  0  0  0  0  0  0  0  0  0  0
    0.0021   -0.0041    0.0020 C   0  0  0  0  0  0  0  0  0  0  0  0
   -1.1674   -0.6981    0.0099 O   0  0  0  0  0  0  0  0  0  0  0  0
   -2.3750    0.0658    0.0260 C   0  0  0  0  0  0  0  0  0  0  0  0
   -3.5771   -0.8807    0.0329 C   0  0  0  0  0  0  0  0  0  0  0  0
   -3.5242   -1.6935    1.1704 F   0  0  0  0  0  0  0  0  0  0  0  0
   -4.7593   -0.1329    0.0487 F   0  0  0  0  0  0  0  0  0  0  0  0
   -3.5469   -1.6812   -1.1140 F   0  0  0  0  0  0  0  0  0  0  0  0
    3.6962   -0.6863   -0.0375 C   0  0  0  0  0  0  0  0  0  0  0  0
    4.7394   -0.0617   -0.0445 O   0  0  0  0  0  0  0  0  0  0  0  0
    3.7176   -2.0339   -0.0449 N   0  0  0  0  0  0  0  0  0  0  0  0
    4.9977   -2.7461   -0.0615 C   0  0  0  0  0  0  0  0  0  0  0  0
    4.7419   -4.2546   -0.0671 C   0  0  2  0  0  0  0  0  0  0  0  0
    4.2623   -4.5448    0.8677 H   0  0  0  0  0  0  0  0  0  0  0  0
    6.0728   -4.9964   -0.2085 C   0  0  0  0  0  0  0  0  0  0  0  0
    5.8119   -6.5054   -0.2133 C   0  0  0  0  0  0  0  0  0  0  0  0
    4.8370   -6.8413   -1.3456 C   0  0  0  0  0  0  0  0  0  0  0  0
    3.5519   -6.0312   -1.1620 C   0  0  0  0  0  0  0  0  0  0  0  0
    3.8651   -4.5974   -1.1932 N   0  3  0  0  0  0  0  0  0  0  0  0
    3.5422    2.1345   -0.0208 O   0  0  0  0  0  0  0  0  0  0  0  0
    3.4384    3.5597   -0.0126 C   0  0  0  0  0  0  0  0  0  0  0  0
    4.8399    4.1732   -0.0231 C   0  0  0  0  0  0  0  0  0  0  0  0
    5.5204    3.7619   -1.1742 F   0  0  0  0  0  0  0  0  0  0  0  0
    4.7383    5.5685   -0.0151 F   0  0  0  0  0  0  0  0  0  0  0  0
    5.5427    3.7503    1.1102 F   0  0  0  0  0  0  0  0  0  0  0  0
   -0.9608    1.9094    0.0260 H   0  0  0  0  0  0  0  0  0  0  0  0
    1.1429    3.1783    0.0079 H   0  0  0  0  0  0  0  0  0  0  0  0
    1.2192   -1.7629   -0.0195 H   0  0  0  0  0  0  0  0  0  0  0  0
   -2.3985    0.6895    0.9197 H   0  0  0  0  0  0  0  0  0  0  0  0
   -2.4162    0.6990   -0.8602 H   0  0  0  0  0  0  0  0  0  0  0  0
    2.8854   -2.5322   -0.0393 H   0  0  0  0  0  0  0  0  0  0  0  0
    5.5561   -2.4690   -0.9556 H   0  0  0  0  0  0  0  0  0  0  0  0
    5.5738   -2.4786    0.8243 H   0  0  0  0  0  0  0  0  0  0  0  0
    6.5532   -4.7071   -1.1432 H   0  0  0  0  0  0  0  0  0  0  0  0
    6.7222   -4.7420    0.6292 H   0  0  0  0  0  0  0  0  0  0  0  0
    6.7503   -7.0371   -0.3706 H   0  0  0  0  0  0  0  0  0  0  0  0
    5.3783   -6.8034    0.7413 H   0  0  0  0  0  0  0  0  0  0  0  0
    5.2918   -6.5903   -2.3039 H   0  0  0  0  0  0  0  0  0  0  0  0
    4.6030   -7.9056   -1.3206 H   0  0  0  0  0  0  0  0  0  0  0  0
    2.8556   -6.2681   -1.9664 H   0  0  0  0  0  0  0  0  0  0  0  0
    3.0979   -6.2831   -0.2036 H   0  0  0  0  0  0  0  0  0  0  0  0
    3.0099   -4.0662   -1.1261 H   0  0  0  0  0  0  0  0  0  0  0  0
    2.8908    3.8892   -0.8956 H   0  0  0  0  0  0  0  0  0  0  0  0
    2.9082    3.8802    0.8843 H   0  0  0  0  0  0  0  0  0  0  0  0
    4.3302   -4.3742   -2.0603 H   0  0  0  0  0  0  0  0  0  0  0  0
  1  6  2  0  0  0  0
  1  2  1  0  0  0  0
  1 30  1  0  0  0  0
  2  3  2  0  0  0  0
  2 31  1  0  0  0  0
  3  4  1  0  0  0  0
  3 24  1  0  0  0  0
  4  5  2  0  0  0  0
  4 13  1  0  0  0  0
  5  6  1  0  0  0  0
  5 32  1  0  0  0  0
  6  7  1  0  0  0  0
  7  8  1  0  0  0  0
  8  9  1  0  0  0  0
  8 33  1  0  0  0  0
  8 34  1  0  0  0  0
  9 10  1  0  0  0  0
  9 11  1  0  0  0  0
  9 12  1  0  0  0  0
 13 14  2  0  0  0  0
 13 15  1  0  0  0  0
 15 16  1  0  0  0  0
 15 35  1  0  0  0  0
 16 17  1  0  0  0  0
 16 36  1  0  0  0  0
 16 37  1  0  0  0  0
 17 18  1  1  0  0  0
 17 23  1  0  0  0  0
 17 19  1  0  0  0  0
 19 20  1  0  0  0  0
 19 38  1  0  0  0  0
 19 39  1  0  0  0  0
 20 21  1  0  0  0  0
 20 40  1  0  0  0  0
 20 41  1  0  0  0  0
 21 22  1  0  0  0  0
 21 42  1  0  0  0  0
 21 43  1  0  0  0  0
 22 23  1  0  0  0  0
 22 44  1  0  0  0  0
 22 45  1  0  0  0  0
 23 46  1  0  0  0  0
 23 49  1  0  0  0  0
 24 25  1  0  0  0  0
 25 26  1  0  0  0  0
 25 47  1  0  0  0  0
 25 48  1  0  0  0  0
 26 27  1  0  0  0  0
 26 28  1  0  0  0  0
 26 29  1  0  0  0  0
M  CHG  1  23   1
M  END
$$$$
