ZINC03814394
 OpenBabel08292219463D

 49 52  0  0  1  0  0  0  0  0999 V2000
   -4.1569   -2.0771   -2.8047 C   0  0  0  0  0  0  0  0  0  0  0  0
   -3.1416   -2.4702   -1.7297 C   0  0  0  0  0  0  0  0  0  0  0  0
   -3.6495   -2.0186   -0.3590 C   0  0  2  0  0  0  0  0  0  0  0  0
   -3.9814   -0.5380   -0.3509 C   0  0  0  0  0  0  0  0  0  0  0  0
   -2.7103    0.2040   -0.7967 C   0  0  0  0  0  0  0  0  0  0  0  0
   -1.5200   -0.1045    0.1045 C   0  0  1  0  0  0  0  0  0  0  0  0
   -1.7146    0.3236    1.0878 H   0  0  0  0  0  0  0  0  0  0  0  0
   -1.2938   -1.6194    0.2394 C   0  0  2  0  0  0  0  0  0  0  0  0
   -1.0028   -2.0496   -0.7189 H   0  0  0  0  0  0  0  0  0  0  0  0
   -2.5867   -2.2390    0.7108 C   0  0  2  0  0  0  0  0  0  0  0  0
   -2.9230   -1.7206    1.6088 H   0  0  0  0  0  0  0  0  0  0  0  0
   -2.6474   -3.7065    0.9671 C   0  0  0  0  0  0  0  0  0  0  0  0
   -3.8589   -4.1455    0.6564 C   0  0  0  0  0  0  0  0  0  0  0  0
   -4.7306   -2.9658    0.1826 C   0  0  1  0  0  0  0  0  0  0  0  0
   -5.4994   -2.3256    1.2624 C   0  0  0  0  0  0  0  0  0  0  0  0
   -6.1126   -1.8151    2.1236 C   0  0  0  0  0  0  0  0  0  0  0  0
   -5.5952   -3.4081   -0.8656 O   0  0  0  0  0  0  0  0  0  0  0  0
   -0.1870   -1.8483    1.2726 C   0  0  0  0  0  0  0  0  0  0  0  0
    1.1289   -1.2811    0.7354 C   0  0  0  0  0  0  0  0  0  0  0  0
    0.9207    0.1774    0.3702 C   0  0  0  0  0  0  0  0  0  0  0  0
    1.8156    1.0619    0.8088 C   0  0  0  0  0  0  0  0  0  0  0  0
    1.6834    2.4788    0.4525 C   0  0  0  0  0  0  0  0  0  0  0  0
    2.2214    3.3527    1.0998 O   0  0  0  0  0  0  0  0  0  0  0  0
    0.8382    2.7924   -0.7854 C   0  0  0  0  0  0  0  0  0  0  0  0
   -0.4810    2.0394   -0.6163 C   0  0  0  0  0  0  0  0  0  0  0  0
   -0.2586    0.5439   -0.4781 C   0  0  2  0  0  0  0  0  0  0  0  0
   -0.0987    0.1327   -1.4748 H   0  0  0  0  0  0  0  0  0  0  0  0
   -3.8101   -2.4266   -3.7772 H   0  0  0  0  0  0  0  0  0  0  0  0
   -5.1210   -2.5321   -2.5777 H   0  0  0  0  0  0  0  0  0  0  0  0
   -4.2628   -0.9924   -2.8251 H   0  0  0  0  0  0  0  0  0  0  0  0
   -2.1859   -1.9897   -1.9395 H   0  0  0  0  0  0  0  0  0  0  0  0
   -3.0121   -3.5525   -1.7307 H   0  0  0  0  0  0  0  0  0  0  0  0
   -4.2626   -0.2246    0.6545 H   0  0  0  0  0  0  0  0  0  0  0  0
   -4.7956   -0.3333   -1.0461 H   0  0  0  0  0  0  0  0  0  0  0  0
   -2.9011    1.2770   -0.7762 H   0  0  0  0  0  0  0  0  0  0  0  0
   -2.4675   -0.0914   -1.8174 H   0  0  0  0  0  0  0  0  0  0  0  0
   -1.8369   -4.3126    1.3439 H   0  0  0  0  0  0  0  0  0  0  0  0
   -4.1929   -5.1672    0.7614 H   0  0  0  0  0  0  0  0  0  0  0  0
   -6.6610   -1.3584    2.8938 H   0  0  0  0  0  0  0  0  0  0  0  0
   -6.2942   -4.0084   -0.5720 H   0  0  0  0  0  0  0  0  0  0  0  0
   -0.0750   -2.9170    1.4554 H   0  0  0  0  0  0  0  0  0  0  0  0
   -0.4473   -1.3450    2.2037 H   0  0  0  0  0  0  0  0  0  0  0  0
    1.4330   -1.8395   -0.1499 H   0  0  0  0  0  0  0  0  0  0  0  0
    1.9018   -1.3594    1.4999 H   0  0  0  0  0  0  0  0  0  0  0  0
    2.6390    0.7354    1.4267 H   0  0  0  0  0  0  0  0  0  0  0  0
    1.3253    2.4936   -1.6060 H   0  0  0  0  0  0  0  0  0  0  0  0
    0.6488    3.8646   -0.8369 H   0  0  0  0  0  0  0  0  0  0  0  0
   -1.1112    2.2264   -1.4857 H   0  0  0  0  0  0  0  0  0  0  0  0
   -0.9888    2.4074    0.2752 H   0  0  0  0  0  0  0  0  0  0  0  0
  1  2  1  0  0  0  0
  1 28  1  0  0  0  0
  1 29  1  0  0  0  0
  1 30  1  0  0  0  0
  2 31  1  0  0  0  0
  2 32  1  0  0  0  0
  3  2  1  6  0  0  0
  3 10  1  0  0  0  0
  3 14  1  0  0  0  0
  3  4  1  0  0  0  0
  4  5  1  0  0  0  0
  4 33  1  0  0  0  0
  4 34  1  0  0  0  0
  5  6  1  0  0  0  0
  5 35  1  0  0  0  0
  5 36  1  0  0  0  0
  6  7  1  1  0  0  0
  6 26  1  0  0  0  0
  6  8  1  0  0  0  0
  8  9  1  6  0  0  0
  8 10  1  0  0  0  0
  8 18  1  0  0  0  0
 10 11  1  1  0  0  0
 10 12  1  0  0  0  0
 12 13  2  0  0  0  0
 12 37  1  0  0  0  0
 13 14  1  0  0  0  0
 13 38  1  0  0  0  0
 14 15  1  1  0  0  0
 14 17  1  0  0  0  0
 15 16  3  0  0  0  0
 16 39  1  0  0  0  0
 17 40  1  0  0  0  0
 18 19  1  0  0  0  0
 18 41  1  0  0  0  0
 18 42  1  0  0  0  0
 19 20  1  0  0  0  0
 19 43  1  0  0  0  0
 19 44  1  0  0  0  0
 20 26  1  0  0  0  0
 20 21  2  0  0  0  0
 21 22  1  0  0  0  0
 21 45  1  0  0  0  0
 22 23  2  0  0  0  0
 22 24  1  0  0  0  0
 24 25  1  0  0  0  0
 24 46  1  0  0  0  0
 24 47  1  0  0  0  0
 25 26  1  0  0  0  0
 25 48  1  0  0  0  0
 25 49  1  0  0  0  0
 26 27  1  6  0  0  0
M  END
$$$$
