ZINC00006310
 OpenBabel08292219463D

 29 30  0  0  0  0  0  0  0  0999 V2000
   -0.0168    1.3849    0.0097 C   0  0  0  0  0  0  0  0  0  0  0  0
    1.1707    2.0901    0.0021 C   0  0  0  0  0  0  0  0  0  0  0  0
    2.3774    1.4150   -0.0135 C   0  0  0  0  0  0  0  0  0  0  0  0
    2.3998    0.0323   -0.0216 C   0  0  0  0  0  0  0  0  0  0  0  0
    1.2161   -0.6790   -0.0141 C   0  0  0  0  0  0  0  0  0  0  0  0
    0.0021   -0.0041    0.0020 C   0  0  0  0  0  0  0  0  0  0  0  0
   -1.1970   -0.7204    0.0101 N   0  0  0  0  0  0  0  0  0  0  0  0
    3.8900    2.3186   -0.0237 S   0  0  0  0  0  0  0  0  0  0  0  0
    4.8718    1.4608   -0.5889 O   0  0  0  0  0  0  0  0  0  0  0  0
    3.5946    3.5990   -0.5647 O   0  0  0  0  0  0  0  0  0  0  0  0
    4.3540    2.5768    1.6564 C   0  0  0  0  0  0  0  0  0  0  0  0
    3.9163    3.7039    2.3276 C   0  0  0  0  0  0  0  0  0  0  0  0
    4.2777    3.9091    3.6446 C   0  0  0  0  0  0  0  0  0  0  0  0
    5.0818    2.9817    4.2951 C   0  0  0  0  0  0  0  0  0  0  0  0
    5.5197    1.8506    3.6180 C   0  0  0  0  0  0  0  0  0  0  0  0
    5.1502    1.6490    2.3026 C   0  0  0  0  0  0  0  0  0  0  0  0
    5.4496    3.1864    5.6269 N   0  0  0  0  0  0  0  0  0  0  0  0
   -0.9589    1.9127    0.0260 H   0  0  0  0  0  0  0  0  0  0  0  0
    1.1567    3.1700    0.0080 H   0  0  0  0  0  0  0  0  0  0  0  0
    3.3440   -0.4918   -0.0341 H   0  0  0  0  0  0  0  0  0  0  0  0
    1.2342   -1.7588   -0.0212 H   0  0  0  0  0  0  0  0  0  0  0  0
   -2.0441   -0.2480    0.0210 H   0  0  0  0  0  0  0  0  0  0  0  0
   -1.1826   -1.6903    0.0047 H   0  0  0  0  0  0  0  0  0  0  0  0
    3.2915    4.4246    1.8211 H   0  0  0  0  0  0  0  0  0  0  0  0
    3.9359    4.7897    4.1681 H   0  0  0  0  0  0  0  0  0  0  0  0
    6.1452    1.1279    4.1207 H   0  0  0  0  0  0  0  0  0  0  0  0
    5.4866    0.7676    1.7769 H   0  0  0  0  0  0  0  0  0  0  0  0
    5.1435    3.9767    6.0987 H   0  0  0  0  0  0  0  0  0  0  0  0
    6.0111    2.5381    6.0801 H   0  0  0  0  0  0  0  0  0  0  0  0
  1  6  2  0  0  0  0
  1  2  1  0  0  0  0
  1 18  1  0  0  0  0
  2  3  2  0  0  0  0
  2 19  1  0  0  0  0
  3  4  1  0  0  0  0
  3  8  1  0  0  0  0
  4  5  2  0  0  0  0
  4 20  1  0  0  0  0
  5  6  1  0  0  0  0
  5 21  1  0  0  0  0
  6  7  1  0  0  0  0
  7 22  1  0  0  0  0
  7 23  1  0  0  0  0
  8  9  2  0  0  0  0
  8 10  2  0  0  0  0
  8 11  1  0  0  0  0
 11 16  2  0  0  0  0
 11 12  1  0  0  0  0
 12 13  2  0  0  0  0
 12 24  1  0  0  0  0
 13 14  1  0  0  0  0
 13 25  1  0  0  0  0
 14 15  2  0  0  0  0
 14 17  1  0  0  0  0
 15 16  1  0  0  0  0
 15 26  1  0  0  0  0
 16 27  1  0  0  0  0
 17 28  1  0  0  0  0
 17 29  1  0  0  0  0
M  END
$$$$
