ZINC35999642
 OpenBabel08292219463D

 32 33  0  0  1  0  0  0  0  0999 V2000
   -0.2858    1.5696    0.5867 C   0  0  0  0  0  0  0  0  0  0  0  0
   -0.0689    0.1782    0.1684 N   0  0  0  0  0  0  0  0  0  0  0  0
    0.8065   -0.5258    1.1150 C   0  0  2  0  0  0  0  0  0  0  0  0
    0.8622   -2.0142    0.7552 C   0  0  0  0  0  0  0  0  0  0  0  0
   -0.5217   -2.6361    0.9490 C   0  0  0  0  0  0  0  0  0  0  0  0
   -0.9209   -2.5636    2.4238 C   0  0  0  0  0  0  0  0  0  0  0  0
   -1.0437   -1.0959    2.8464 C   0  0  0  0  0  0  0  0  0  0  0  0
    0.2528   -0.3902    2.5162 C   0  0  0  0  0  0  0  0  0  0  0  0
    0.8314    0.2643    3.3500 O   0  0  0  0  0  0  0  0  0  0  0  0
    2.1917    0.0649    1.0587 C   0  0  0  0  0  0  0  0  0  0  0  0
    2.4918    1.0356    0.1215 C   0  0  0  0  0  0  0  0  0  0  0  0
    3.7623    1.5775    0.0697 C   0  0  0  0  0  0  0  0  0  0  0  0
    4.7338    1.1490    0.9553 C   0  0  0  0  0  0  0  0  0  0  0  0
    4.4350    0.1786    1.8927 C   0  0  0  0  0  0  0  0  0  0  0  0
    3.1617   -0.3602    1.9487 C   0  0  0  0  0  0  0  0  0  0  0  0
    2.7838   -1.5745    3.1304 Cl  0  0  0  0  0  0  0  0  0  0  0  0
    0.6765    2.0500    0.7636 H   0  0  0  0  0  0  0  0  0  0  0  0
   -0.8208    2.1055   -0.1972 H   0  0  0  0  0  0  0  0  0  0  0  0
   -0.8740    1.5856    1.5043 H   0  0  0  0  0  0  0  0  0  0  0  0
   -0.9466   -0.3071    0.0579 H   0  0  0  0  0  0  0  0  0  0  0  0
    1.1684   -2.1255   -0.2850 H   0  0  0  0  0  0  0  0  0  0  0  0
    1.5809   -2.5178    1.4017 H   0  0  0  0  0  0  0  0  0  0  0  0
   -1.2509   -2.0915    0.3491 H   0  0  0  0  0  0  0  0  0  0  0  0
   -0.4983   -3.6783    0.6308 H   0  0  0  0  0  0  0  0  0  0  0  0
   -1.8785   -3.0644    2.5663 H   0  0  0  0  0  0  0  0  0  0  0  0
   -0.1600   -3.0543    3.0309 H   0  0  0  0  0  0  0  0  0  0  0  0
   -1.8645   -0.6263    2.3043 H   0  0  0  0  0  0  0  0  0  0  0  0
   -1.2292   -1.0381    3.9190 H   0  0  0  0  0  0  0  0  0  0  0  0
    1.7334    1.3705   -0.5708 H   0  0  0  0  0  0  0  0  0  0  0  0
    3.9964    2.3357   -0.6629 H   0  0  0  0  0  0  0  0  0  0  0  0
    5.7265    1.5725    0.9142 H   0  0  0  0  0  0  0  0  0  0  0  0
    5.1941   -0.1563    2.5842 H   0  0  0  0  0  0  0  0  0  0  0  0
  1  2  1  0  0  0  0
  1 17  1  0  0  0  0
  1 18  1  0  0  0  0
  1 19  1  0  0  0  0
  2 20  1  0  0  0  0
  3  2  1  6  0  0  0
  3  8  1  0  0  0  0
  3  4  1  0  0  0  0
  3 10  1  0  0  0  0
  4  5  1  0  0  0  0
  4 21  1  0  0  0  0
  4 22  1  0  0  0  0
  5  6  1  0  0  0  0
  5 23  1  0  0  0  0
  5 24  1  0  0  0  0
  6  7  1  0  0  0  0
  6 25  1  0  0  0  0
  6 26  1  0  0  0  0
  7  8  1  0  0  0  0
  7 27  1  0  0  0  0
  7 28  1  0  0  0  0
  8  9  2  0  0  0  0
 10 15  2  0  0  0  0
 10 11  1  0  0  0  0
 11 12  2  0  0  0  0
 11 29  1  0  0  0  0
 12 13  1  0  0  0  0
 12 30  1  0  0  0  0
 13 14  2  0  0  0  0
 13 31  1  0  0  0  0
 14 15  1  0  0  0  0
 14 32  1  0  0  0  0
 15 16  1  0  0  0  0
M  END
$$$$
