ZINC85534098
 OpenBabel08292219463D

122124  0  0  1  0  0  0  0  0999 V2000
    1.1735   -0.9616   -1.7898 C   0  0  0  0  0  0  0  0  0  0  0  0
    0.6057   -2.3111   -1.3453 C   0  0  0  0  0  0  0  0  0  0  0  0
   -0.9065   -2.1874   -1.1457 C   0  0  2  0  0  0  0  0  0  0  0  0
   -1.1215   -1.3785   -0.4489 H   0  0  0  0  0  0  0  0  0  0  0  0
   -1.4424   -3.5080   -0.5637 C   0  0  1  0  0  0  0  0  0  0  0  0
   -2.6432   -3.2054    0.3142 C   0  0  1  0  0  0  0  0  0  0  0  0
   -2.9923   -2.1834    0.0956 H   0  0  0  0  0  0  0  0  0  0  0  0
   -3.8310   -4.1518    0.1788 C   0  0  2  0  0  0  0  0  0  0  0  0
   -3.9435   -4.5647   -0.8068 H   0  0  0  0  0  0  0  0  0  0  0  0
   -5.0759   -3.3711    0.5436 C   0  0  0  0  0  0  0  0  0  0  0  0
   -5.0137   -2.6313    1.5103 O   0  0  0  0  0  0  0  0  0  0  0  0
   -6.3665   -3.4485   -0.2121 C   0  0  1  0  0  0  0  0  0  0  0  0
   -7.1614   -3.5550    0.5741 H   0  0  0  0  0  0  0  0  0  0  0  0
   -6.6836   -2.1555   -0.9360 C   0  0  0  0  0  0  0  0  0  0  0  0
   -6.0842   -1.9948   -2.3257 C   0  0  1  0  0  0  0  0  0  0  0  0
   -6.1048   -0.4997   -2.6848 C   0  0  1  0  0  0  0  0  0  0  0  0
   -5.7431    0.0703   -1.8277 H   0  0  0  0  0  0  0  0  0  0  0  0
   -5.2301   -0.2068   -3.9015 C   0  0  2  0  0  0  0  0  0  0  0  0
   -5.0085   -1.1145   -4.4549 H   0  0  0  0  0  0  0  0  0  0  0  0
   -3.9338    0.4754   -3.4569 C   0  0  1  0  0  0  0  0  0  0  0  0
   -3.9322    0.5889   -2.3716 H   0  0  0  0  0  0  0  0  0  0  0  0
   -2.7215   -0.3496   -3.8869 C   0  0  2  0  0  0  0  0  0  0  0  0
   -3.0457   -1.2811   -4.3515 H   0  0  0  0  0  0  0  0  0  0  0  0
   -1.8664   -0.6555   -2.6824 C   0  0  0  0  0  0  0  0  0  0  0  0
   -1.4768    0.2417   -1.9750 O   0  0  0  0  0  0  0  0  0  0  0  0
   -1.5361   -1.9260   -2.3995 O   0  0  0  0  0  0  0  0  0  0  0  0
   -1.8944    0.4491   -4.8993 C   0  0  0  0  0  0  0  0  0  0  0  0
   -3.8618    1.7694   -4.0627 O   0  0  0  0  0  0  0  0  0  0  0  0
   -3.1497    2.7389   -3.2837 C   0  0  1  0  0  0  0  0  0  0  0  0
   -2.1602    2.3498   -3.0604 H   0  0  0  0  0  0  0  0  0  0  0  0
   -3.0433    4.0390   -4.0833 C   0  0  0  0  0  0  0  0  0  0  0  0
   -2.3150    5.0981   -3.2577 C   0  0  1  0  0  0  0  0  0  0  0  0
   -2.9509    5.2644   -1.8839 C   0  0  2  0  0  0  0  0  0  0  0  0
   -2.2440    5.8101   -1.2375 H   0  0  0  0  0  0  0  0  0  0  0  0
   -3.3218    3.9589   -1.2018 C   0  0  1  0  0  0  0  0  0  0  0  0
   -4.1036    4.1916   -0.4470 H   0  0  0  0  0  0  0  0  0  0  0  0
   -3.8718    2.9962   -2.0842 O   0  0  0  0  0  0  0  0  0  0  0  0
   -2.1337    3.3770   -0.4343 C   0  0  0  0  0  0  0  0  0  0  0  0
   -4.1267    6.0804   -2.0092 O   0  0  0  0  0  0  0  0  0  0  0  0
   -0.8300    4.7526   -3.1407 C   0  0  0  0  0  0  0  0  0  0  0  0
   -2.4199    6.3551   -3.9566 O   0  0  0  0  0  0  0  0  0  0  0  0
   -1.8455    6.3423   -5.2650 C   0  0  0  0  0  0  0  0  0  0  0  0
   -5.9906    0.7456   -4.8375 C   0  0  0  0  0  0  0  0  0  0  0  0
   -7.4524   -0.1087   -2.9671 O   0  0  0  0  0  0  0  0  0  0  0  0
   -7.8531    1.1025   -2.3234 C   0  0  1  0  0  0  0  0  0  0  0  0
   -7.1261    1.8858   -2.5377 H   0  0  0  0  0  0  0  0  0  0  0  0
   -9.2288    1.5266   -2.8442 C   0  0  1  0  0  0  0  0  0  0  0  0
   -9.9479    0.7268   -2.6667 H   0  0  0  0  0  0  0  0  0  0  0  0
   -9.6778    2.7916   -2.1064 C   0  0  2  0  0  0  0  0  0  0  0  0
   -8.9859    3.6054   -2.3236 H   0  0  0  0  0  0  0  0  0  0  0  0
   -9.6866    2.5149   -0.5999 C   0  0  0  0  0  0  0  0  0  0  0  0
   -8.2932    2.0527   -0.1657 C   0  0  2  0  0  0  0  0  0  0  0  0
   -7.5719    2.8485   -0.3516 H   0  0  0  0  0  0  0  0  0  0  0  0
   -7.9238    0.8912   -0.9118 O   0  0  0  0  0  0  0  0  0  0  0  0
   -8.3091    1.7169    1.3269 C   0  0  0  0  0  0  0  0  0  0  0  0
  -11.0286    3.1644   -2.5473 N   0  3  0  0  0  0  0  0  0  0  0  0
  -11.9845    2.1334   -2.1216 C   0  0  0  0  0  0  0  0  0  0  0  0
  -11.4005    4.4537   -1.9495 C   0  0  0  0  0  0  0  0  0  0  0  0
   -9.1474    1.7931   -4.2458 O   0  0  0  0  0  0  0  0  0  0  0  0
   -4.6469   -2.4993   -2.3847 C   0  0  0  0  0  0  0  0  0  0  0  0
   -6.8810   -2.6910   -3.2903 O   0  0  0  0  0  0  0  0  0  0  0  0
   -6.3328   -2.6852   -4.6100 C   0  0  0  0  0  0  0  0  0  0  0  0
   -6.4958   -4.6902   -1.0761 C   0  0  0  0  0  0  0  0  0  0  0  0
   -3.6768   -5.2967    1.1937 C   0  0  0  0  0  0  0  0  0  0  0  0
   -2.2178   -3.2135    1.6907 O   0  0  0  0  0  0  0  0  0  0  0  0
   -1.7323   -4.4676   -1.7105 C   0  0  0  0  0  0  0  0  0  0  0  0
   -0.4027   -4.0764    0.2534 O   0  0  0  0  0  0  0  0  0  0  0  0
    2.2505   -1.0497   -1.9320 H   0  0  0  0  0  0  0  0  0  0  0  0
    0.7064   -0.6622   -2.7280 H   0  0  0  0  0  0  0  0  0  0  0  0
    0.9679   -0.2116   -1.0260 H   0  0  0  0  0  0  0  0  0  0  0  0
    0.8112   -3.0611   -2.1091 H   0  0  0  0  0  0  0  0  0  0  0  0
    1.0727   -2.6105   -0.4071 H   0  0  0  0  0  0  0  0  0  0  0  0
   -7.7785   -2.0541   -1.0146 H   0  0  0  0  0  0  0  0  0  0  0  0
   -6.3430   -1.3116   -0.3138 H   0  0  0  0  0  0  0  0  0  0  0  0
   -1.5574    1.3786   -4.4404 H   0  0  0  0  0  0  0  0  0  0  0  0
   -1.0295   -0.1390   -5.2064 H   0  0  0  0  0  0  0  0  0  0  0  0
   -2.5078    0.6758   -5.7713 H   0  0  0  0  0  0  0  0  0  0  0  0
   -2.4905    3.8515   -5.0062 H   0  0  0  0  0  0  0  0  0  0  0  0
   -4.0444    4.3938   -4.3340 H   0  0  0  0  0  0  0  0  0  0  0  0
   -1.8103    4.0867    0.3271 H   0  0  0  0  0  0  0  0  0  0  0  0
   -2.4314    2.4431    0.0425 H   0  0  0  0  0  0  0  0  0  0  0  0
   -1.3128    3.1865   -1.1256 H   0  0  0  0  0  0  0  0  0  0  0  0
   -4.5901    6.2333   -1.1744 H   0  0  0  0  0  0  0  0  0  0  0  0
   -0.3871    4.7110   -4.1358 H   0  0  0  0  0  0  0  0  0  0  0  0
   -0.3247    5.5164   -2.5497 H   0  0  0  0  0  0  0  0  0  0  0  0
   -0.7197    3.7839   -2.6531 H   0  0  0  0  0  0  0  0  0  0  0  0
   -0.7849    6.1014   -5.1939 H   0  0  0  0  0  0  0  0  0  0  0  0
   -2.3484    5.5921   -5.8753 H   0  0  0  0  0  0  0  0  0  0  0  0
   -1.9652    7.3237   -5.7240 H   0  0  0  0  0  0  0  0  0  0  0  0
   -6.1504    1.6991   -4.3340 H   0  0  0  0  0  0  0  0  0  0  0  0
   -5.4073    0.9067   -5.7441 H   0  0  0  0  0  0  0  0  0  0  0  0
   -6.9536    0.3066   -5.0983 H   0  0  0  0  0  0  0  0  0  0  0  0
   -9.9516    3.4261   -0.0637 H   0  0  0  0  0  0  0  0  0  0  0  0
  -10.4149    1.7351   -0.3770 H   0  0  0  0  0  0  0  0  0  0  0  0
   -9.0301    0.9208    1.5126 H   0  0  0  0  0  0  0  0  0  0  0  0
   -7.3169    1.3878    1.6359 H   0  0  0  0  0  0  0  0  0  0  0  0
   -8.5915    2.6028    1.8956 H   0  0  0  0  0  0  0  0  0  0  0  0
  -12.9868    2.4099   -2.4487 H   0  0  0  0  0  0  0  0  0  0  0  0
  -11.7086    1.1767   -2.5652 H   0  0  0  0  0  0  0  0  0  0  0  0
  -11.9674    2.0485   -1.0350 H   0  0  0  0  0  0  0  0  0  0  0  0
  -10.7142    5.2263   -2.2960 H   0  0  0  0  0  0  0  0  0  0  0  0
  -12.4173    4.7116   -2.2454 H   0  0  0  0  0  0  0  0  0  0  0  0
  -11.3458    4.3798   -0.8633 H   0  0  0  0  0  0  0  0  0  0  0  0
   -8.8640    1.0348   -4.7746 H   0  0  0  0  0  0  0  0  0  0  0  0
   -4.6349   -3.5797   -2.2414 H   0  0  0  0  0  0  0  0  0  0  0  0
   -4.2164   -2.2568   -3.3563 H   0  0  0  0  0  0  0  0  0  0  0  0
   -4.0618   -2.0219   -1.5987 H   0  0  0  0  0  0  0  0  0  0  0  0
   -6.8792   -3.3928   -5.2335 H   0  0  0  0  0  0  0  0  0  0  0  0
   -6.4185   -1.6850   -5.0347 H   0  0  0  0  0  0  0  0  0  0  0  0
   -5.2824   -2.9735   -4.5683 H   0  0  0  0  0  0  0  0  0  0  0  0
   -6.3596   -5.5782   -0.4589 H   0  0  0  0  0  0  0  0  0  0  0  0
   -7.4852   -4.7135   -1.5330 H   0  0  0  0  0  0  0  0  0  0  0  0
   -5.7355   -4.6703   -1.8569 H   0  0  0  0  0  0  0  0  0  0  0  0
   -3.6472   -4.8860    2.2030 H   0  0  0  0  0  0  0  0  0  0  0  0
   -4.5225   -5.9784    1.1036 H   0  0  0  0  0  0  0  0  0  0  0  0
   -2.7516   -5.8371    0.9940 H   0  0  0  0  0  0  0  0  0  0  0  0
   -2.9261   -3.0283    2.3224 H   0  0  0  0  0  0  0  0  0  0  0  0
   -0.8147   -4.6551   -2.2681 H   0  0  0  0  0  0  0  0  0  0  0  0
   -2.1128   -5.4074   -1.3105 H   0  0  0  0  0  0  0  0  0  0  0  0
   -2.4768   -4.0270   -2.3736 H   0  0  0  0  0  0  0  0  0  0  0  0
    0.4148   -4.2672   -0.2266 H   0  0  0  0  0  0  0  0  0  0  0  0
  -11.0444    3.2430   -3.5531 H   0  0  0  0  0  0  0  0  0  0  0  0
  1  2  1  0  0  0  0
  1 68  1  0  0  0  0
  1 69  1  0  0  0  0
  1 70  1  0  0  0  0
  2  3  1  0  0  0  0
  2 71  1  0  0  0  0
  2 72  1  0  0  0  0
  3  4  1  1  0  0  0
  3 26  1  0  0  0  0
  3  5  1  0  0  0  0
  5  6  1  0  0  0  0
  5 66  1  0  0  0  0
  5 67  1  1  0  0  0
  6  7  1  6  0  0  0
  6  8  1  0  0  0  0
  6 65  1  0  0  0  0
  8  9  1  6  0  0  0
  8 10  1  0  0  0  0
  8 64  1  0  0  0  0
 10 11  2  0  0  0  0
 10 12  1  0  0  0  0
 12 13  1  1  0  0  0
 12 14  1  0  0  0  0
 12 63  1  0  0  0  0
 14 15  1  0  0  0  0
 14 73  1  0  0  0  0
 14 74  1  0  0  0  0
 15 16  1  0  0  0  0
 15 60  1  0  0  0  0
 15 61  1  6  0  0  0
 16 17  1  1  0  0  0
 16 18  1  0  0  0  0
 16 44  1  0  0  0  0
 18 19  1  6  0  0  0
 18 20  1  0  0  0  0
 18 43  1  0  0  0  0
 20 21  1  1  0  0  0
 20 22  1  0  0  0  0
 20 28  1  0  0  0  0
 22 23  1  6  0  0  0
 22 24  1  0  0  0  0
 22 27  1  0  0  0  0
 24 25  2  0  0  0  0
 24 26  1  0  0  0  0
 27 75  1  0  0  0  0
 27 76  1  0  0  0  0
 27 77  1  0  0  0  0
 28 29  1  0  0  0  0
 29 30  1  1  0  0  0
 29 37  1  0  0  0  0
 29 31  1  0  0  0  0
 31 32  1  0  0  0  0
 31 78  1  0  0  0  0
 31 79  1  0  0  0  0
 32 33  1  0  0  0  0
 32 40  1  0  0  0  0
 32 41  1  6  0  0  0
 33 34  1  1  0  0  0
 33 35  1  0  0  0  0
 33 39  1  0  0  0  0
 35 36  1  1  0  0  0
 35 37  1  0  0  0  0
 35 38  1  0  0  0  0
 38 80  1  0  0  0  0
 38 81  1  0  0  0  0
 38 82  1  0  0  0  0
 39 83  1  0  0  0  0
 40 84  1  0  0  0  0
 40 85  1  0  0  0  0
 40 86  1  0  0  0  0
 41 42  1  0  0  0  0
 42 87  1  0  0  0  0
 42 88  1  0  0  0  0
 42 89  1  0  0  0  0
 43 90  1  0  0  0  0
 43 91  1  0  0  0  0
 43 92  1  0  0  0  0
 44 45  1  0  0  0  0
 45 46  1  6  0  0  0
 45 54  1  0  0  0  0
 45 47  1  0  0  0  0
 47 48  1  1  0  0  0
 47 49  1  0  0  0  0
 47 59  1  0  0  0  0
 49 50  1  6  0  0  0
 49 51  1  0  0  0  0
 49 56  1  0  0  0  0
 51 52  1  0  0  0  0
 51 93  1  0  0  0  0
 51 94  1  0  0  0  0
 52 53  1  6  0  0  0
 52 54  1  0  0  0  0
 52 55  1  0  0  0  0
 55 95  1  0  0  0  0
 55 96  1  0  0  0  0
 55 97  1  0  0  0  0
 56 57  1  0  0  0  0
 56 58  1  0  0  0  0
 56122  1  0  0  0  0
 57 98  1  0  0  0  0
 57 99  1  0  0  0  0
 57100  1  0  0  0  0
 58101  1  0  0  0  0
 58102  1  0  0  0  0
 58103  1  0  0  0  0
 59104  1  0  0  0  0
 60105  1  0  0  0  0
 60106  1  0  0  0  0
 60107  1  0  0  0  0
 61 62  1  0  0  0  0
 62108  1  0  0  0  0
 62109  1  0  0  0  0
 62110  1  0  0  0  0
 63111  1  0  0  0  0
 63112  1  0  0  0  0
 63113  1  0  0  0  0
 64114  1  0  0  0  0
 64115  1  0  0  0  0
 64116  1  0  0  0  0
 65117  1  0  0  0  0
 66118  1  0  0  0  0
 66119  1  0  0  0  0
 66120  1  0  0  0  0
 67121  1  0  0  0  0
M  CHG  1  56   1
M  END
$$$$
