ZINC00001758
 OpenBabel08292219463D

 42 43  0  0  0  0  0  0  0  0999 V2000
    0.9286    1.3510   -0.6394 C   0  0  0  0  0  0  0  0  0  0  0  0
    0.9927   -0.1538   -0.5909 C   0  0  0  0  0  0  0  0  0  0  0  0
    1.3887   -0.8587   -1.6982 C   0  0  0  0  0  0  0  0  0  0  0  0
    1.4512   -2.2576   -1.6621 C   0  0  0  0  0  0  0  0  0  0  0  0
    1.1049   -2.9345   -0.4831 C   0  0  0  0  0  0  0  0  0  0  0  0
    0.7060   -2.2132    0.6292 C   0  0  0  0  0  0  0  0  0  0  0  0
    0.6550   -0.8276    0.5809 C   0  0  0  0  0  0  0  0  0  0  0  0
    0.2689   -0.1265    1.6767 O   0  0  0  0  0  0  0  0  0  0  0  0
   -1.1274    0.1446    1.8146 C   0  0  0  0  0  0  0  0  0  0  0  0
    0.3328   -2.9349    1.8984 C   0  0  0  0  0  0  0  0  0  0  0  0
    1.5583   -3.1038    2.7591 C   0  0  0  0  0  0  0  0  0  0  0  0
    1.8955   -4.2933    3.1923 C   0  0  0  0  0  0  0  0  0  0  0  0
    0.9860   -5.4699    2.9485 C   0  0  0  0  0  0  0  0  0  0  0  0
    3.1930   -4.4849    3.9344 C   0  0  0  0  0  0  0  0  0  0  0  0
    2.9349   -4.4103    5.4407 C   0  0  0  0  0  0  0  0  0  0  0  0
    4.2324   -4.6020    6.1828 C   0  0  0  0  0  0  0  0  0  0  0  0
    5.2677   -4.7816    5.5643 O   0  0  0  0  0  0  0  0  0  0  0  0
    4.2469   -4.5775    7.4017 O   0  0  0  0  0  1  0  0  0  0  0  0
    1.1602   -4.2889   -0.4334 O   0  0  0  0  0  0  0  0  0  0  0  0
    1.9029   -2.7178   -2.9815 C   0  0  0  0  0  0  0  0  0  0  0  0
    2.0657   -3.8807   -3.2950 O   0  0  0  0  0  0  0  0  0  0  0  0
    2.1096   -1.6658   -3.7920 O   0  0  0  0  0  0  0  0  0  0  0  0
    1.8170   -0.4564   -3.0868 C   0  0  0  0  0  0  0  0  0  0  0  0
    1.8910    1.7656   -0.3395 H   0  0  0  0  0  0  0  0  0  0  0  0
    0.6950    1.6722   -1.6544 H   0  0  0  0  0  0  0  0  0  0  0  0
    0.1533    1.7037    0.0408 H   0  0  0  0  0  0  0  0  0  0  0  0
   -1.6773   -0.7954    1.8595 H   0  0  0  0  0  0  0  0  0  0  0  0
   -1.2990    0.7101    2.7305 H   0  0  0  0  0  0  0  0  0  0  0  0
   -1.4709    0.7259    0.9589 H   0  0  0  0  0  0  0  0  0  0  0  0
   -0.4144   -2.3548    2.4400 H   0  0  0  0  0  0  0  0  0  0  0  0
   -0.0763   -3.9148    1.6524 H   0  0  0  0  0  0  0  0  0  0  0  0
    2.1584   -2.2443    3.0188 H   0  0  0  0  0  0  0  0  0  0  0  0
    1.1877   -5.8867    1.9618 H   0  0  0  0  0  0  0  0  0  0  0  0
    1.1650   -6.2310    3.7080 H   0  0  0  0  0  0  0  0  0  0  0  0
   -0.0526   -5.1429    2.9995 H   0  0  0  0  0  0  0  0  0  0  0  0
    3.6134   -5.4594    3.6857 H   0  0  0  0  0  0  0  0  0  0  0  0
    3.8951   -3.7023    3.6469 H   0  0  0  0  0  0  0  0  0  0  0  0
    2.5146   -3.4359    5.6894 H   0  0  0  0  0  0  0  0  0  0  0  0
    2.2328   -5.1930    5.7282 H   0  0  0  0  0  0  0  0  0  0  0  0
    2.0155   -4.6374   -0.1470 H   0  0  0  0  0  0  0  0  0  0  0  0
    1.0100    0.0805   -3.5854 H   0  0  0  0  0  0  0  0  0  0  0  0
    2.7072    0.1705   -3.0358 H   0  0  0  0  0  0  0  0  0  0  0  0
  1  2  1  0  0  0  0
  1 24  1  0  0  0  0
  1 25  1  0  0  0  0
  1 26  1  0  0  0  0
  2  7  2  0  0  0  0
  2  3  1  0  0  0  0
  3 23  1  0  0  0  0
  3  4  2  0  0  0  0
  4  5  1  0  0  0  0
  4 20  1  0  0  0  0
  5  6  2  0  0  0  0
  5 19  1  0  0  0  0
  6  7  1  0  0  0  0
  6 10  1  0  0  0  0
  7  8  1  0  0  0  0
  8  9  1  0  0  0  0
  9 27  1  0  0  0  0
  9 28  1  0  0  0  0
  9 29  1  0  0  0  0
 10 11  1  0  0  0  0
 10 30  1  0  0  0  0
 10 31  1  0  0  0  0
 11 12  2  0  0  0  0
 11 32  1  0  0  0  0
 12 13  1  0  0  0  0
 12 14  1  0  0  0  0
 13 33  1  0  0  0  0
 13 34  1  0  0  0  0
 13 35  1  0  0  0  0
 14 15  1  0  0  0  0
 14 36  1  0  0  0  0
 14 37  1  0  0  0  0
 15 16  1  0  0  0  0
 15 38  1  0  0  0  0
 15 39  1  0  0  0  0
 16 17  2  0  0  0  0
 16 18  1  0  0  0  0
 19 40  1  0  0  0  0
 20 21  2  0  0  0  0
 20 22  1  0  0  0  0
 22 23  1  0  0  0  0
 23 41  1  0  0  0  0
 23 42  1  0  0  0  0
M  END
$$$$
