ZINC00001655
 OpenBabel08292219463D

 29 30  0  0  0  0  0  0  0  0999 V2000
    0.6464    1.4590   -0.0291 C   0  0  0  0  0  0  0  0  0  0  0  0
    0.4033   -0.0283   -0.0363 C   0  0  0  0  0  0  0  0  0  0  0  0
    0.2472   -0.6967   -1.2370 C   0  0  0  0  0  0  0  0  0  0  0  0
    0.0235   -2.0611   -1.2487 C   0  0  0  0  0  0  0  0  0  0  0  0
   -0.0443   -2.7623   -0.0593 C   0  0  0  0  0  0  0  0  0  0  0  0
    0.1125   -2.0943    1.1490 C   0  0  0  0  0  0  0  0  0  0  0  0
    0.3424   -0.7234    1.1565 C   0  0  0  0  0  0  0  0  0  0  0  0
    0.5456    0.1155    2.6627 Cl  0  0  0  0  0  0  0  0  0  0  0  0
    0.0441   -2.8002    2.3544 N   0  0  0  0  0  0  0  0  0  0  0  0
    0.2738   -4.1685    2.3711 C   0  0  0  0  0  0  0  0  0  0  0  0
   -0.7785   -5.0514    2.5833 C   0  0  0  0  0  0  0  0  0  0  0  0
   -0.5475   -6.4110    2.5989 C   0  0  0  0  0  0  0  0  0  0  0  0
    0.7321   -6.9091    2.4043 C   0  0  0  0  0  0  0  0  0  0  0  0
    1.7883   -6.0519    2.1929 C   0  0  0  0  0  0  0  0  0  0  0  0
    1.5710   -4.6698    2.1677 C   0  0  0  0  0  0  0  0  0  0  0  0
    2.6930   -3.7482    1.9364 C   0  0  0  0  0  0  0  0  0  0  0  0
    3.7985   -4.1892    1.6527 O   0  0  0  0  0  0  0  0  0  0  0  0
    2.5212   -2.5401    2.0277 O   0  0  0  0  0  1  0  0  0  0  0  0
   -0.3257   -4.4753   -0.0751 Cl  0  0  0  0  0  0  0  0  0  0  0  0
    1.7183    1.6522   -0.0719 H   0  0  0  0  0  0  0  0  0  0  0  0
    0.1609    1.9107   -0.8942 H   0  0  0  0  0  0  0  0  0  0  0  0
    0.2358    1.8898    0.8841 H   0  0  0  0  0  0  0  0  0  0  0  0
    0.2997   -0.1515   -2.1678 H   0  0  0  0  0  0  0  0  0  0  0  0
   -0.0986   -2.5795   -2.1882 H   0  0  0  0  0  0  0  0  0  0  0  0
   -0.1640   -2.3333    3.1788 H   0  0  0  0  0  0  0  0  0  0  0  0
   -1.7781   -4.6724    2.7365 H   0  0  0  0  0  0  0  0  0  0  0  0
   -1.3688   -7.0926    2.7642 H   0  0  0  0  0  0  0  0  0  0  0  0
    0.9010   -7.9758    2.4190 H   0  0  0  0  0  0  0  0  0  0  0  0
    2.7826   -6.4458    2.0424 H   0  0  0  0  0  0  0  0  0  0  0  0
  1  2  1  0  0  0  0
  1 20  1  0  0  0  0
  1 21  1  0  0  0  0
  1 22  1  0  0  0  0
  2  7  2  0  0  0  0
  2  3  1  0  0  0  0
  3  4  2  0  0  0  0
  3 23  1  0  0  0  0
  4  5  1  0  0  0  0
  4 24  1  0  0  0  0
  5  6  2  0  0  0  0
  5 19  1  0  0  0  0
  6  7  1  0  0  0  0
  6  9  1  0  0  0  0
  7  8  1  0  0  0  0
  9 10  1  0  0  0  0
  9 25  1  0  0  0  0
 10 15  2  0  0  0  0
 10 11  1  0  0  0  0
 11 12  2  0  0  0  0
 11 26  1  0  0  0  0
 12 13  1  0  0  0  0
 12 27  1  0  0  0  0
 13 14  2  0  0  0  0
 13 28  1  0  0  0  0
 14 15  1  0  0  0  0
 14 29  1  0  0  0  0
 15 16  1  0  0  0  0
 16 17  2  0  0  0  0
 16 18  1  0  0  0  0
M  END
$$$$
