ZINC03830453
 OpenBabel08292219463D

 44 46  0  0  1  0  0  0  0  0999 V2000
    2.2556   -0.3618   -0.0607 C   0  0  0  0  0  0  0  0  0  0  0  0
    0.8944   -0.7964   -0.0409 O   0  0  0  0  0  0  0  0  0  0  0  0
   -0.0566    0.2701   -0.0561 C   0  0  0  0  0  0  0  0  0  0  0  0
   -1.4483   -0.2992   -0.1568 C   0  0  0  0  0  0  0  0  0  0  0  0
   -2.4301    0.5845   -0.2618 C   0  0  0  0  0  0  0  0  0  0  0  0
   -3.7555    0.1592   -0.4131 N   0  0  0  0  0  0  0  0  0  0  0  0
   -4.3075   -1.1945   -0.1250 C   0  0  1  0  0  0  0  0  0  0  0  0
   -4.5512   -1.3772    0.9216 H   0  0  0  0  0  0  0  0  0  0  0  0
   -5.5012   -0.8642   -1.0031 C   0  0  1  0  0  0  0  0  0  0  0  0
   -6.4682   -1.0015   -0.5193 H   0  0  0  0  0  0  0  0  0  0  0  0
   -4.9370    0.5327   -0.8885 C   0  0  0  0  0  0  0  0  0  0  0  0
   -5.4042    1.6226   -1.1435 O   0  0  0  0  0  0  0  0  0  0  0  0
   -5.4378   -1.4345   -2.3511 N   0  0  0  0  0  0  0  0  0  0  0  0
   -6.5733   -1.6625   -3.0403 C   0  0  0  0  0  0  0  0  0  0  0  0
   -7.6419   -1.3038   -2.5867 O   0  0  0  0  0  0  0  0  0  0  0  0
   -6.5186   -2.3509   -4.3515 C   0  0  0  0  0  0  0  0  0  0  0  0
   -7.5970   -2.4630   -5.0739 N   0  0  0  0  0  0  0  0  0  0  0  0
   -8.7956   -1.8336   -4.6591 O   0  0  0  0  0  0  0  0  0  0  0  0
   -9.8974   -2.0400   -5.5454 C   0  0  0  0  0  0  0  0  0  0  0  0
   -5.2399   -2.9105   -4.8400 C   0  0  0  0  0  0  0  0  0  0  0  0
   -5.1531   -3.4467   -6.0970 C   0  0  0  0  0  0  0  0  0  0  0  0
   -3.4358   -3.9427   -6.1303 S   0  0  0  0  0  0  0  0  0  0  0  0
   -3.0112   -3.4000   -4.4813 C   0  0  0  0  0  0  0  0  0  0  0  0
   -4.1594   -2.9042   -4.0606 N   0  0  0  0  0  0  0  0  0  0  0  0
   -1.7974   -3.4790   -3.8196 N   0  0  0  0  0  0  0  0  0  0  0  0
   -3.1056   -2.3808   -0.8173 S   0  0  0  0  0  0  0  0  0  0  0  0
   -1.5482   -1.7901   -0.1319 C   0  0  0  0  0  0  0  0  0  0  0  0
   -2.1245    2.0260   -0.2194 C   0  0  0  0  0  0  0  0  0  0  0  0
   -3.0277    2.8388   -0.2234 O   0  0  0  0  0  0  0  0  0  0  0  0
    2.4383    0.2193   -0.9646 H   0  0  0  0  0  0  0  0  0  0  0  0
    2.4522    0.2569    0.8149 H   0  0  0  0  0  0  0  0  0  0  0  0
    2.9144   -1.2300   -0.0474 H   0  0  0  0  0  0  0  0  0  0  0  0
    0.0331    0.8500    0.8625 H   0  0  0  0  0  0  0  0  0  0  0  0
    0.1349    0.9155   -0.9133 H   0  0  0  0  0  0  0  0  0  0  0  0
   -4.5786   -1.6479   -2.7475 H   0  0  0  0  0  0  0  0  0  0  0  0
  -10.7770   -1.5264   -5.1574 H   0  0  0  0  0  0  0  0  0  0  0  0
   -9.6504   -1.6441   -6.5304 H   0  0  0  0  0  0  0  0  0  0  0  0
  -10.1051   -3.1071   -5.6244 H   0  0  0  0  0  0  0  0  0  0  0  0
   -5.9125   -3.5424   -6.8589 H   0  0  0  0  0  0  0  0  0  0  0  0
   -1.7150   -3.1385   -2.9151 H   0  0  0  0  0  0  0  0  0  0  0  0
   -1.0294   -3.8748   -4.2606 H   0  0  0  0  0  0  0  0  0  0  0  0
   -0.7207   -2.2106   -0.7033 H   0  0  0  0  0  0  0  0  0  0  0  0
   -1.4752   -2.1332    0.9001 H   0  0  0  0  0  0  0  0  0  0  0  0
   -0.8435    2.4423   -0.1762 O   0  0  0  0  0  1  0  0  0  0  0  0
  1  2  1  0  0  0  0
  1 30  1  0  0  0  0
  1 31  1  0  0  0  0
  1 32  1  0  0  0  0
  2  3  1  0  0  0  0
  3  4  1  0  0  0  0
  3 33  1  0  0  0  0
  3 34  1  0  0  0  0
  4 27  1  0  0  0  0
  4  5  2  0  0  0  0
  5  6  1  0  0  0  0
  5 28  1  0  0  0  0
  6 11  1  0  0  0  0
  6  7  1  0  0  0  0
  7  8  1  1  0  0  0
  7  9  1  0  0  0  0
  7 26  1  0  0  0  0
  9 10  1  1  0  0  0
  9 11  1  0  0  0  0
  9 13  1  0  0  0  0
 11 12  2  0  0  0  0
 13 14  1  0  0  0  0
 13 35  1  0  0  0  0
 14 15  2  0  0  0  0
 14 16  1  0  0  0  0
 16 17  2  0  0  0  0
 16 20  1  0  0  0  0
 17 18  1  0  0  0  0
 18 19  1  0  0  0  0
 19 36  1  0  0  0  0
 19 37  1  0  0  0  0
 19 38  1  0  0  0  0
 20 24  1  0  0  0  0
 20 21  2  0  0  0  0
 21 22  1  0  0  0  0
 21 39  1  0  0  0  0
 22 23  1  0  0  0  0
 23 24  2  0  0  0  0
 23 25  1  0  0  0  0
 25 40  1  0  0  0  0
 25 41  1  0  0  0  0
 26 27  1  0  0  0  0
 27 42  1  0  0  0  0
 27 43  1  0  0  0  0
 28 29  2  0  0  0  0
 28 44  1  0  0  0  0
M  END
$$$$
