ZINC00057503
 OpenBabel08292219463D

 29 30  0  0  1  0  0  0  0  0999 V2000
    0.2718    1.5504   -0.1350 C   0  0  0  0  0  0  0  0  0  0  0  0
    0.0406    0.0439   -0.0009 C   0  0  1  0  0  0  0  0  0  0  0  0
    0.4237   -0.4627   -0.8867 H   0  0  0  0  0  0  0  0  0  0  0  0
    0.7593   -0.4678    1.2208 C   0  0  0  0  0  0  0  0  0  0  0  0
    0.4341    0.0300    2.4702 C   0  0  0  0  0  0  0  0  0  0  0  0
    1.0884   -0.4338    3.5925 C   0  0  0  0  0  0  0  0  0  0  0  0
    2.0804   -1.4079    3.4658 C   0  0  0  0  0  0  0  0  0  0  0  0
    2.4033   -1.9061    2.2023 C   0  0  0  0  0  0  0  0  0  0  0  0
    1.7376   -1.4375    1.0887 C   0  0  0  0  0  0  0  0  0  0  0  0
    2.7865   -1.9094    4.6647 C   0  0  0  0  0  0  0  0  0  0  0  0
    2.4211   -1.5665    5.7741 O   0  0  0  0  0  0  0  0  0  0  0  0
    3.9245   -2.8180    4.5172 C   0  0  0  0  0  0  0  0  0  0  0  0
    4.6618   -3.4651    5.5011 C   0  0  0  0  0  0  0  0  0  0  0  0
    5.6834   -4.2642    5.0510 C   0  0  0  0  0  0  0  0  0  0  0  0
    5.9009   -4.3678    3.7152 C   0  0  0  0  0  0  0  0  0  0  0  0
    4.7208   -3.3893    3.0280 S   0  0  0  0  0  0  0  0  0  0  0  0
   -1.4356   -0.2277    0.1341 C   0  0  0  0  0  0  0  0  0  0  0  0
   -1.9344   -1.1828   -0.4364 O   0  0  0  0  0  0  0  0  0  0  0  0
   -2.1311    0.5077    0.8138 O   0  0  0  0  0  1  0  0  0  0  0  0
    1.3395    1.7469   -0.2327 H   0  0  0  0  0  0  0  0  0  0  0  0
   -0.2481    1.9205   -1.0187 H   0  0  0  0  0  0  0  0  0  0  0  0
   -0.1114    2.0571    0.7508 H   0  0  0  0  0  0  0  0  0  0  0  0
   -0.3335    0.7835    2.5669 H   0  0  0  0  0  0  0  0  0  0  0  0
    0.8341   -0.0439    4.5671 H   0  0  0  0  0  0  0  0  0  0  0  0
    3.1697   -2.6598    2.0974 H   0  0  0  0  0  0  0  0  0  0  0  0
    1.9834   -1.8252    0.1111 H   0  0  0  0  0  0  0  0  0  0  0  0
    4.4455   -3.3467    6.5526 H   0  0  0  0  0  0  0  0  0  0  0  0
    6.3058   -4.8028    5.7503 H   0  0  0  0  0  0  0  0  0  0  0  0
    6.6572   -4.9497    3.2095 H   0  0  0  0  0  0  0  0  0  0  0  0
  1  2  1  0  0  0  0
  1 20  1  0  0  0  0
  1 21  1  0  0  0  0
  1 22  1  0  0  0  0
  2  3  1  6  0  0  0
  2  4  1  0  0  0  0
  2 17  1  0  0  0  0
  4  9  2  0  0  0  0
  4  5  1  0  0  0  0
  5  6  2  0  0  0  0
  5 23  1  0  0  0  0
  6  7  1  0  0  0  0
  6 24  1  0  0  0  0
  7  8  2  0  0  0  0
  7 10  1  0  0  0  0
  8  9  1  0  0  0  0
  8 25  1  0  0  0  0
  9 26  1  0  0  0  0
 10 11  2  0  0  0  0
 10 12  1  0  0  0  0
 12 16  1  0  0  0  0
 12 13  2  0  0  0  0
 13 14  1  0  0  0  0
 13 27  1  0  0  0  0
 14 15  2  0  0  0  0
 14 28  1  0  0  0  0
 15 16  1  0  0  0  0
 15 29  1  0  0  0  0
 17 18  2  0  0  0  0
 17 19  1  0  0  0  0
M  END
$$$$
