ZINC96006017
 OpenBabel08292219463D

144147  0  0  1  0  0  0  0  0999 V2000
    0.0275    3.1122    0.5075 C   0  0  0  0  0  0  0  0  0  0  0  0
   -0.2094    1.5980    0.4247 C   0  0  2  0  0  0  0  0  0  0  0  0
    0.1945    1.2242   -0.5161 H   0  0  0  0  0  0  0  0  0  0  0  0
   -1.7151    1.3376    0.4762 C   0  0  0  0  0  0  0  0  0  0  0  0
   -1.9779   -0.1488    0.7419 C   0  0  0  0  0  0  0  0  0  0  0  0
   -0.6734   -0.9257    0.5650 C   0  0  2  0  0  0  0  0  0  0  0  0
   -0.2585   -0.6918   -0.4320 H   0  0  0  0  0  0  0  0  0  0  0  0
   -0.9262   -2.4235    0.6083 C   0  0  0  0  0  0  0  0  0  0  0  0
   -1.7875   -2.8529    1.7970 C   0  0  1  0  0  0  0  0  0  0  0  0
   -2.8420   -2.7544    1.5454 H   0  0  0  0  0  0  0  0  0  0  0  0
   -1.4704   -4.3038    2.0953 C   0  0  0  0  0  0  0  0  0  0  0  0
   -1.0272   -4.6842    3.2833 C   0  0  0  0  0  0  0  0  0  0  0  0
   -0.6734   -6.0805    3.5532 C   0  0  0  0  0  0  0  0  0  0  0  0
   -0.1608   -6.4061    4.7558 C   0  0  0  0  0  0  0  0  0  0  0  0
    0.3057   -7.7709    5.0320 C   0  0  0  0  0  0  0  0  0  0  0  0
    0.8963   -7.9884    6.2045 C   0  0  0  0  0  0  0  0  0  0  0  0
    1.4942   -9.2941    6.6302 C   0  0  2  0  0  0  0  0  0  0  0  0
    0.7277   -9.8568    7.1916 H   0  0  0  0  0  0  0  0  0  0  0  0
    2.6780   -9.0589    7.5610 C   0  0  0  0  0  0  0  0  0  0  0  0
    3.8736   -8.4035    6.8814 C   0  0  2  0  0  0  0  0  0  0  0  0
    4.0690   -8.8540    5.9110 H   0  0  0  0  0  0  0  0  0  0  0  0
    5.1024   -8.5959    7.7463 C   0  0  0  0  0  0  0  0  0  0  0  0
    5.0091   -9.2102    8.7826 O   0  0  0  0  0  0  0  0  0  0  0  0
    6.4264   -8.0160    7.3323 C   0  0  1  0  0  0  0  0  0  0  0  0
    6.3100   -7.4072    6.4373 H   0  0  0  0  0  0  0  0  0  0  0  0
    6.9883   -7.1542    8.4645 C   0  0  1  0  0  0  0  0  0  0  0  0
    7.4789   -7.7894    9.2014 H   0  0  0  0  0  0  0  0  0  0  0  0
    7.9940   -6.1733    7.9027 C   0  0  0  0  0  0  0  0  0  0  0  0
    7.5642   -5.1669    7.1930 C   0  0  0  0  0  0  0  0  0  0  0  0
    8.4675   -4.1195    6.6007 C   0  0  2  0  0  0  0  0  0  0  0  0
    9.3475   -3.9670    7.2186 H   0  0  0  0  0  0  0  0  0  0  0  0
    7.7034   -2.8157    6.5229 C   0  0  0  0  0  0  0  0  0  0  0  0
    7.1835   -2.3829    7.5259 O   0  0  0  0  0  0  0  0  0  0  0  0
    7.5912   -2.0691    5.2236 C   0  0  0  0  0  0  0  0  0  0  0  0
    6.7817   -0.7810    5.4112 C   0  0  2  0  0  0  0  0  0  0  0  0
    6.0673   -0.9072    6.2215 H   0  0  0  0  0  0  0  0  0  0  0  0
    6.0822   -0.4839    4.2013 O   0  0  0  0  0  0  0  0  0  0  0  0
    5.2571    0.5752    4.1862 C   0  0  0  0  0  0  0  0  0  0  0  0
    4.4931    0.7625    5.1032 O   0  0  0  0  0  0  0  0  0  0  0  0
    5.2956    1.5299    3.0200 C   0  0  2  0  0  0  0  0  0  0  0  0
    5.6733    1.0049    2.1386 H   0  0  0  0  0  0  0  0  0  0  0  0
    6.2361    2.6881    3.3503 C   0  0  0  0  0  0  0  0  0  0  0  0
    6.3353    3.6595    2.1814 C   0  0  0  0  0  0  0  0  0  0  0  0
    4.9910    3.8741    1.4994 C   0  0  0  0  0  0  0  0  0  0  0  0
    3.8468    3.5140    2.4470 C   0  0  0  0  0  0  0  0  0  0  0  0
    3.9614    2.0547    2.7303 N   0  0  0  0  0  0  0  0  0  0  0  0
    2.8345    1.3646    2.7061 C   0  0  0  0  0  0  0  0  0  0  0  0
    2.4940    0.7637    3.6943 O   0  0  0  0  0  0  0  0  0  0  0  0
    1.9588    1.2252    1.5309 C   0  0  0  0  0  0  0  0  0  0  0  0
    2.4592    1.3970    0.4472 O   0  0  0  0  0  0  0  0  0  0  0  0
    0.4934    0.9054    1.5981 C   0  0  2  0  0  0  0  0  0  0  0  0
    0.2771   -0.5033    1.5330 O   0  0  0  0  0  0  0  0  0  0  0  0
   -0.0473    1.4118    2.8189 O   0  0  0  0  0  0  0  0  0  0  0  0
    7.7305    0.3706    5.7477 C   0  0  1  0  0  0  0  0  0  0  0  0
    8.3637    0.0860    6.5880 H   0  0  0  0  0  0  0  0  0  0  0  0
    8.6059    0.6820    4.5321 C   0  0  0  0  0  0  0  0  0  0  0  0
    6.9155    1.6107    6.1202 C   0  0  0  0  0  0  0  0  0  0  0  0
    7.8581    2.7136    6.6058 C   0  0  2  0  0  0  0  0  0  0  0  0
    8.6164    2.9040    5.8463 H   0  0  0  0  0  0  0  0  0  0  0  0
    8.5363    2.2701    7.9036 C   0  0  0  0  0  0  0  0  0  0  0  0
    9.4790    3.3730    8.3892 C   0  0  0  0  0  0  0  0  0  0  0  0
    8.6791    4.6523    8.6432 C   0  0  2  0  0  0  0  0  0  0  0  0
    7.9208    4.4620    9.4027 H   0  0  0  0  0  0  0  0  0  0  0  0
    8.0009    5.0959    7.3454 C   0  0  1  0  0  0  0  0  0  0  0  0
    8.7592    5.2862    6.5859 H   0  0  0  0  0  0  0  0  0  0  0  0
    7.0582    3.9929    6.8598 C   0  0  0  0  0  0  0  0  0  0  0  0
    7.2538    6.2907    7.5826 O   0  0  0  0  0  0  0  0  0  0  0  0
    7.9986    7.4926    7.3758 C   0  0  0  0  0  0  0  0  0  0  0  0
    9.5595    5.6825    9.0968 O   0  0  0  0  0  0  0  0  0  0  0  0
    8.8988   -4.5506    5.1977 C   0  0  0  0  0  0  0  0  0  0  0  0
    9.4569   -6.3861    8.1857 C   0  0  0  0  0  0  0  0  0  0  0  0
    5.9324   -6.4292    9.0960 O   0  0  0  0  0  0  0  0  0  0  0  0
    7.3391   -9.0851    7.0565 O   0  0  0  0  0  0  0  0  0  0  0  0
    7.3231   -9.5270    5.6977 C   0  0  0  0  0  0  0  0  0  0  0  0
    3.6326   -6.9012    6.7113 C   0  0  0  0  0  0  0  0  0  0  0  0
    1.9081  -10.1361    5.4270 C   0  0  0  0  0  0  0  0  0  0  0  0
   -1.6853   -5.3182    0.9974 C   0  0  0  0  0  0  0  0  0  0  0  0
   -1.4830   -2.0552    2.9422 O   0  0  0  0  0  0  0  0  0  0  0  0
   -2.5853   -1.8726    3.8331 C   0  0  0  0  0  0  0  0  0  0  0  0
    1.0974    3.3156    0.4614 H   0  0  0  0  0  0  0  0  0  0  0  0
   -0.4721    3.6042   -0.3270 H   0  0  0  0  0  0  0  0  0  0  0  0
   -0.3745    3.4921    1.4467 H   0  0  0  0  0  0  0  0  0  0  0  0
   -2.1605    1.9354    1.2732 H   0  0  0  0  0  0  0  0  0  0  0  0
   -2.1642    1.6207   -0.4780 H   0  0  0  0  0  0  0  0  0  0  0  0
   -2.3497   -0.2739    1.7595 H   0  0  0  0  0  0  0  0  0  0  0  0
   -2.7242   -0.5207    0.0368 H   0  0  0  0  0  0  0  0  0  0  0  0
   -1.4282   -2.7178   -0.3170 H   0  0  0  0  0  0  0  0  0  0  0  0
    0.0347   -2.9391    0.6577 H   0  0  0  0  0  0  0  0  0  0  0  0
   -0.9242   -3.9638    4.0856 H   0  0  0  0  0  0  0  0  0  0  0  0
   -0.8128   -6.8588    2.8229 H   0  0  0  0  0  0  0  0  0  0  0  0
   -0.0945   -5.6606    5.5353 H   0  0  0  0  0  0  0  0  0  0  0  0
    0.1479   -8.5461    4.3051 H   0  0  0  0  0  0  0  0  0  0  0  0
    0.9190   -7.1507    6.9078 H   0  0  0  0  0  0  0  0  0  0  0  0
    2.3500   -8.4250    8.3950 H   0  0  0  0  0  0  0  0  0  0  0  0
    2.9890  -10.0223    7.9829 H   0  0  0  0  0  0  0  0  0  0  0  0
    6.4930   -5.0833    7.0205 H   0  0  0  0  0  0  0  0  0  0  0  0
    8.5892   -1.7960    4.8736 H   0  0  0  0  0  0  0  0  0  0  0  0
    7.0948   -2.6865    4.4805 H   0  0  0  0  0  0  0  0  0  0  0  0
    5.8539    3.2173    4.2240 H   0  0  0  0  0  0  0  0  0  0  0  0
    7.2285    2.2951    3.5704 H   0  0  0  0  0  0  0  0  0  0  0  0
    6.6945    4.6204    2.5540 H   0  0  0  0  0  0  0  0  0  0  0  0
    7.0470    3.2759    1.4533 H   0  0  0  0  0  0  0  0  0  0  0  0
    4.9007    4.9210    1.2095 H   0  0  0  0  0  0  0  0  0  0  0  0
    4.9357    3.2492    0.6101 H   0  0  0  0  0  0  0  0  0  0  0  0
    3.9403    4.0745    3.3759 H   0  0  0  0  0  0  0  0  0  0  0  0
    2.8880    3.7238    1.9768 H   0  0  0  0  0  0  0  0  0  0  0  0
    0.3444    1.0240    3.6133 H   0  0  0  0  0  0  0  0  0  0  0  0
    9.1743    1.5934    4.7175 H   0  0  0  0  0  0  0  0  0  0  0  0
    9.2934   -0.1457    4.3578 H   0  0  0  0  0  0  0  0  0  0  0  0
    7.9738    0.8201    3.6549 H   0  0  0  0  0  0  0  0  0  0  0  0
    6.3665    1.9608    5.2461 H   0  0  0  0  0  0  0  0  0  0  0  0
    6.2122    1.3583    6.9139 H   0  0  0  0  0  0  0  0  0  0  0  0
    7.7780    2.0797    8.6632 H   0  0  0  0  0  0  0  0  0  0  0  0
    9.1062    1.3587    7.7227 H   0  0  0  0  0  0  0  0  0  0  0  0
    9.9621    3.0570    9.3138 H   0  0  0  0  0  0  0  0  0  0  0  0
   10.2372    3.5634    7.6297 H   0  0  0  0  0  0  0  0  0  0  0  0
    6.5751    4.3089    5.9353 H   0  0  0  0  0  0  0  0  0  0  0  0
    6.3000    3.8026    7.6193 H   0  0  0  0  0  0  0  0  0  0  0  0
    7.3614    8.3540    7.5762 H   0  0  0  0  0  0  0  0  0  0  0  0
    8.8552    7.5097    8.0497 H   0  0  0  0  0  0  0  0  0  0  0  0
    8.3474    7.5309    6.3438 H   0  0  0  0  0  0  0  0  0  0  0  0
   10.0247    5.4692    9.9173 H   0  0  0  0  0  0  0  0  0  0  0  0
    8.0177   -4.6687    4.5670 H   0  0  0  0  0  0  0  0  0  0  0  0
    9.5531   -3.7913    4.7694 H   0  0  0  0  0  0  0  0  0  0  0  0
    9.4329   -5.4989    5.2572 H   0  0  0  0  0  0  0  0  0  0  0  0
    9.8916   -7.0082    7.4033 H   0  0  0  0  0  0  0  0  0  0  0  0
    9.9664   -5.4228    8.2089 H   0  0  0  0  0  0  0  0  0  0  0  0
    9.5722   -6.8814    9.1498 H   0  0  0  0  0  0  0  0  0  0  0  0
    6.2243   -5.8631    9.8236 H   0  0  0  0  0  0  0  0  0  0  0  0
    6.3247   -9.8827    5.4430 H   0  0  0  0  0  0  0  0  0  0  0  0
    7.5915   -8.6981    5.0428 H   0  0  0  0  0  0  0  0  0  0  0  0
    8.0409  -10.3374    5.5707 H   0  0  0  0  0  0  0  0  0  0  0  0
    3.4854   -6.4437    7.6897 H   0  0  0  0  0  0  0  0  0  0  0  0
    4.4958   -6.4476    6.2242 H   0  0  0  0  0  0  0  0  0  0  0  0
    2.7449   -6.7426    6.0989 H   0  0  0  0  0  0  0  0  0  0  0  0
    2.6481   -9.5921    4.8401 H   0  0  0  0  0  0  0  0  0  0  0  0
    2.3379  -11.0764    5.7721 H   0  0  0  0  0  0  0  0  0  0  0  0
    1.0338  -10.3414    4.8092 H   0  0  0  0  0  0  0  0  0  0  0  0
   -0.7720   -5.4177    0.4107 H   0  0  0  0  0  0  0  0  0  0  0  0
   -1.9408   -6.2819    1.4381 H   0  0  0  0  0  0  0  0  0  0  0  0
   -2.4982   -4.9873    0.3510 H   0  0  0  0  0  0  0  0  0  0  0  0
   -3.4013   -1.3791    3.3051 H   0  0  0  0  0  0  0  0  0  0  0  0
   -2.9226   -2.8430    4.1974 H   0  0  0  0  0  0  0  0  0  0  0  0
   -2.2729   -1.2565    4.6762 H   0  0  0  0  0  0  0  0  0  0  0  0
  1  2  1  0  0  0  0
  1 80  1  0  0  0  0
  1 81  1  0  0  0  0
  1 82  1  0  0  0  0
  2  3  1  6  0  0  0
  2 51  1  0  0  0  0
  2  4  1  0  0  0  0
  4  5  1  0  0  0  0
  4 83  1  0  0  0  0
  4 84  1  0  0  0  0
  5  6  1  0  0  0  0
  5 85  1  0  0  0  0
  5 86  1  0  0  0  0
  6  7  1  6  0  0  0
  6 52  1  0  0  0  0
  6  8  1  0  0  0  0
  8  9  1  0  0  0  0
  8 87  1  0  0  0  0
  8 88  1  0  0  0  0
  9 10  1  6  0  0  0
  9 11  1  0  0  0  0
  9 78  1  0  0  0  0
 11 12  2  0  0  0  0
 11 77  1  0  0  0  0
 12 13  1  0  0  0  0
 12 89  1  0  0  0  0
 13 14  2  0  0  0  0
 13 90  1  0  0  0  0
 14 15  1  0  0  0  0
 14 91  1  0  0  0  0
 15 16  2  0  0  0  0
 15 92  1  0  0  0  0
 16 17  1  0  0  0  0
 16 93  1  0  0  0  0
 17 18  1  1  0  0  0
 17 19  1  0  0  0  0
 17 76  1  0  0  0  0
 19 20  1  0  0  0  0
 19 94  1  0  0  0  0
 19 95  1  0  0  0  0
 20 21  1  6  0  0  0
 20 22  1  0  0  0  0
 20 75  1  0  0  0  0
 22 23  2  0  0  0  0
 22 24  1  0  0  0  0
 24 25  1  6  0  0  0
 24 26  1  0  0  0  0
 24 73  1  0  0  0  0
 26 27  1  1  0  0  0
 26 28  1  0  0  0  0
 26 72  1  0  0  0  0
 28 29  2  0  0  0  0
 28 71  1  0  0  0  0
 29 30  1  0  0  0  0
 29 96  1  0  0  0  0
 30 31  1  1  0  0  0
 30 32  1  0  0  0  0
 30 70  1  0  0  0  0
 32 33  2  0  0  0  0
 32 34  1  0  0  0  0
 34 35  1  0  0  0  0
 34 97  1  0  0  0  0
 34 98  1  0  0  0  0
 35 36  1  1  0  0  0
 35 37  1  0  0  0  0
 35 54  1  0  0  0  0
 37 38  1  0  0  0  0
 38 39  2  0  0  0  0
 38 40  1  0  0  0  0
 40 41  1  6  0  0  0
 40 46  1  0  0  0  0
 40 42  1  0  0  0  0
 42 43  1  0  0  0  0
 42 99  1  0  0  0  0
 42100  1  0  0  0  0
 43 44  1  0  0  0  0
 43101  1  0  0  0  0
 43102  1  0  0  0  0
 44 45  1  0  0  0  0
 44103  1  0  0  0  0
 44104  1  0  0  0  0
 45 46  1  0  0  0  0
 45105  1  0  0  0  0
 45106  1  0  0  0  0
 46 47  1  0  0  0  0
 47 48  2  0  0  0  0
 47 49  1  0  0  0  0
 49 50  2  0  0  0  0
 49 51  1  0  0  0  0
 51 52  1  0  0  0  0
 51 53  1  1  0  0  0
 53107  1  0  0  0  0
 54 55  1  1  0  0  0
 54 56  1  0  0  0  0
 54 57  1  0  0  0  0
 56108  1  0  0  0  0
 56109  1  0  0  0  0
 56110  1  0  0  0  0
 57 58  1  0  0  0  0
 57111  1  0  0  0  0
 57112  1  0  0  0  0
 58 59  1  6  0  0  0
 58 66  1  0  0  0  0
 58 60  1  0  0  0  0
 60 61  1  0  0  0  0
 60113  1  0  0  0  0
 60114  1  0  0  0  0
 61 62  1  0  0  0  0
 61115  1  0  0  0  0
 61116  1  0  0  0  0
 62 63  1  1  0  0  0
 62 64  1  0  0  0  0
 62 69  1  0  0  0  0
 64 65  1  6  0  0  0
 64 66  1  0  0  0  0
 64 67  1  0  0  0  0
 66117  1  0  0  0  0
 66118  1  0  0  0  0
 67 68  1  0  0  0  0
 68119  1  0  0  0  0
 68120  1  0  0  0  0
 68121  1  0  0  0  0
 69122  1  0  0  0  0
 70123  1  0  0  0  0
 70124  1  0  0  0  0
 70125  1  0  0  0  0
 71126  1  0  0  0  0
 71127  1  0  0  0  0
 71128  1  0  0  0  0
 72129  1  0  0  0  0
 73 74  1  0  0  0  0
 74130  1  0  0  0  0
 74131  1  0  0  0  0
 74132  1  0  0  0  0
 75133  1  0  0  0  0
 75134  1  0  0  0  0
 75135  1  0  0  0  0
 76136  1  0  0  0  0
 76137  1  0  0  0  0
 76138  1  0  0  0  0
 77139  1  0  0  0  0
 77140  1  0  0  0  0
 77141  1  0  0  0  0
 78 79  1  0  0  0  0
 79142  1  0  0  0  0
 79143  1  0  0  0  0
 79144  1  0  0  0  0
M  END
$$$$
