ZINC03629718
 OpenBabel08292219463D

 47 51  0  0  1  0  0  0  0  0999 V2000
    1.3222    0.7802    1.2536 C   0  0  0  0  0  0  0  0  0  0  0  0
    1.2129   -0.7269    1.0138 C   0  0  0  0  0  0  0  0  0  0  0  0
    1.6518   -1.0315   -0.3116 O   0  0  0  0  0  0  0  0  0  0  0  0
    1.6181   -2.3378   -0.6883 C   0  0  0  0  0  0  0  0  0  0  0  0
    1.1697   -3.3342    0.1773 C   0  0  0  0  0  0  0  0  0  0  0  0
    1.1388   -4.6788   -0.1561 C   0  0  0  0  0  0  0  0  0  0  0  0
    1.5508   -5.0935   -1.4102 C   0  0  0  0  0  0  0  0  0  0  0  0
    1.9390   -4.0939   -2.2685 C   0  0  0  0  0  0  0  0  0  0  0  0
    2.0258   -2.7413   -1.9630 C   0  0  0  0  0  0  0  0  0  0  0  0
    2.5579   -2.0670   -3.0085 O   0  0  0  0  0  0  0  0  0  0  0  0
    3.3156   -3.0397   -3.8183 C   0  0  2  0  0  0  0  0  0  0  0  0
    3.4860   -2.7225   -4.8471 H   0  0  0  0  0  0  0  0  0  0  0  0
    2.4059   -4.2502   -3.6944 C   0  0  2  0  0  0  0  0  0  0  0  0
    1.1840   -4.1690   -4.6133 C   0  0  0  0  0  0  0  0  0  0  0  0
    0.2024   -5.2578   -4.1537 C   0  0  0  0  0  0  0  0  0  0  0  0
    0.8267   -6.5815   -4.1954 N   0  3  1  0  0  0  0  0  0  0  0  0
    2.0181   -6.6502   -3.3337 C   0  0  2  0  0  0  0  0  0  0  0  0
    2.4612   -7.6385   -3.4565 H   0  0  0  0  0  0  0  0  0  0  0  0
    1.6204   -6.5122   -1.8740 C   0  0  0  0  0  0  0  0  0  0  0  0
    3.0245   -5.6217   -3.8294 C   0  0  2  0  0  0  0  0  0  0  0  0
    3.1646   -5.8023   -4.8952 H   0  0  0  0  0  0  0  0  0  0  0  0
    4.3663   -5.7167   -3.2031 C   0  0  0  0  0  0  0  0  0  0  0  0
    5.0486   -4.6658   -2.8741 C   0  0  0  0  0  0  0  0  0  0  0  0
    4.6087   -3.2300   -3.0171 C   0  0  2  0  0  0  0  0  0  0  0  0
    5.3985   -2.6514   -3.4961 H   0  0  0  0  0  0  0  0  0  0  0  0
    4.4065   -2.7057   -1.7032 O   0  0  0  0  0  0  0  0  0  0  0  0
   -0.1477   -7.5848   -3.7460 C   0  0  0  0  0  0  0  0  0  0  0  0
    2.3595    1.0929    1.1335 H   0  0  0  0  0  0  0  0  0  0  0  0
    0.6976    1.3089    0.5335 H   0  0  0  0  0  0  0  0  0  0  0  0
    0.9874    1.0125    2.2646 H   0  0  0  0  0  0  0  0  0  0  0  0
    1.8375   -1.2556    1.7339 H   0  0  0  0  0  0  0  0  0  0  0  0
    0.1757   -1.0397    1.1339 H   0  0  0  0  0  0  0  0  0  0  0  0
    0.8289   -3.0429    1.1599 H   0  0  0  0  0  0  0  0  0  0  0  0
    0.7925   -5.4048    0.5646 H   0  0  0  0  0  0  0  0  0  0  0  0
    0.7180   -3.1875   -4.5264 H   0  0  0  0  0  0  0  0  0  0  0  0
    1.4828   -4.3496   -5.6459 H   0  0  0  0  0  0  0  0  0  0  0  0
   -0.1162   -5.0446   -3.1334 H   0  0  0  0  0  0  0  0  0  0  0  0
   -0.6693   -5.2528   -4.8081 H   0  0  0  0  0  0  0  0  0  0  0  0
    2.3479   -7.0448   -1.2616 H   0  0  0  0  0  0  0  0  0  0  0  0
    0.6434   -6.9744   -1.7327 H   0  0  0  0  0  0  0  0  0  0  0  0
    4.7874   -6.6932   -3.0153 H   0  0  0  0  0  0  0  0  0  0  0  0
    6.0377   -4.8342   -2.4744 H   0  0  0  0  0  0  0  0  0  0  0  0
    5.1776   -2.7847   -1.1252 H   0  0  0  0  0  0  0  0  0  0  0  0
   -0.9440   -7.6743   -4.4850 H   0  0  0  0  0  0  0  0  0  0  0  0
    0.3497   -8.5476   -3.6294 H   0  0  0  0  0  0  0  0  0  0  0  0
   -0.5719   -7.2768   -2.7903 H   0  0  0  0  0  0  0  0  0  0  0  0
    1.0956   -6.7885   -5.1456 H   0  0  0  0  0  0  0  0  0  0  0  0
  1  2  1  0  0  0  0
  1 28  1  0  0  0  0
  1 29  1  0  0  0  0
  1 30  1  0  0  0  0
  2  3  1  0  0  0  0
  2 31  1  0  0  0  0
  2 32  1  0  0  0  0
  3  4  1  0  0  0  0
  4  9  2  0  0  0  0
  4  5  1  0  0  0  0
  5  6  2  0  0  0  0
  5 33  1  0  0  0  0
  6  7  1  0  0  0  0
  6 34  1  0  0  0  0
  7 19  1  0  0  0  0
  7  8  2  0  0  0  0
  8  9  1  0  0  0  0
  9 10  1  0  0  0  0
 10 11  1  0  0  0  0
 11 12  1  6  0  0  0
 11 24  1  0  0  0  0
 11 13  1  0  0  0  0
 13  8  1  1  0  0  0
 13 20  1  0  0  0  0
 13 14  1  0  0  0  0
 14 15  1  0  0  0  0
 14 35  1  0  0  0  0
 14 36  1  0  0  0  0
 15 16  1  0  0  0  0
 15 37  1  0  0  0  0
 15 38  1  0  0  0  0
 16 17  1  0  0  0  0
 16 27  1  0  0  0  0
 16 47  1  6  0  0  0
 17 18  1  6  0  0  0
 17 19  1  0  0  0  0
 17 20  1  0  0  0  0
 19 39  1  0  0  0  0
 19 40  1  0  0  0  0
 20 21  1  6  0  0  0
 20 22  1  0  0  0  0
 22 23  2  0  0  0  0
 22 41  1  0  0  0  0
 23 24  1  0  0  0  0
 23 42  1  0  0  0  0
 24 25  1  6  0  0  0
 24 26  1  0  0  0  0
 26 43  1  0  0  0  0
 27 44  1  0  0  0  0
 27 45  1  0  0  0  0
 27 46  1  0  0  0  0
M  CHG  1  16   1
M  END
$$$$
