ZINC03875387
 OpenBabel08292219463D

 54 57  0  0  1  0  0  0  0  0999 V2000
    8.9917    1.8665    0.1552 C   0  0  0  0  0  0  0  0  0  0  0  0
    7.8296    2.7026   -0.3846 C   0  0  2  0  0  0  0  0  0  0  0  0
    7.7023    3.5088    0.1933 H   0  0  0  0  0  0  0  0  0  0  0  0
    6.5494    1.8622   -0.3930 C   0  0  0  0  0  0  0  0  0  0  0  0
    5.4181    2.6552   -1.0538 C   0  0  1  0  0  0  0  0  0  0  0  0
    5.7630    2.9303   -2.5183 C   0  0  1  0  0  0  0  0  0  0  0  0
    5.9347    1.9867   -3.0362 H   0  0  0  0  0  0  0  0  0  0  0  0
    4.6108    3.6815   -3.1902 C   0  0  0  0  0  0  0  0  0  0  0  0
    3.3210    2.8639   -3.1035 C   0  0  0  0  0  0  0  0  0  0  0  0
    2.9830    2.6140   -1.6322 C   0  0  2  0  0  0  0  0  0  0  0  0
    2.8359    3.5639   -1.1183 H   0  0  0  0  0  0  0  0  0  0  0  0
    4.1296    1.8335   -0.9728 C   0  0  2  0  0  0  0  0  0  0  0  0
    4.2747    0.8979   -1.5129 H   0  0  0  0  0  0  0  0  0  0  0  0
    3.8182    1.5002    0.4824 C   0  0  0  0  0  0  0  0  0  0  0  0
    2.4802    0.7535    0.6135 C   0  0  0  0  0  0  0  0  0  0  0  0
    1.4105    1.6337   -0.0026 C   0  0  1  0  0  0  0  0  0  0  0  0
    1.7319    1.7637   -1.5163 C   0  0  1  0  0  0  0  0  0  0  0  0
    1.8994    0.7807   -1.9565 H   0  0  0  0  0  0  0  0  0  0  0  0
    0.4425    2.3945   -2.0534 C   0  0  0  0  0  0  0  0  0  0  0  0
   -0.6672    1.6209   -1.2901 C   0  0  0  0  0  0  0  0  0  0  0  0
   -0.0127    1.0858    0.0080 C   0  0  2  0  0  0  0  0  0  0  0  0
    0.0021   -0.0041    0.0020 H   0  0  0  0  0  0  0  0  0  0  0  0
   -0.7189    1.5644    1.1544 O   0  0  0  0  0  0  0  0  0  0  0  0
    1.4376    3.0160    0.6526 C   0  0  0  0  0  0  0  0  0  0  0  0
    7.0236    3.8012   -2.5924 C   0  0  0  0  0  0  0  0  0  0  0  0
    8.1262    3.1311   -1.8050 C   0  0  0  0  0  0  0  0  0  0  0  0
    9.2135    2.9433   -2.2957 O   0  0  0  0  0  0  0  0  0  0  0  0
    5.2246    3.9821   -0.3170 C   0  0  0  0  0  0  0  0  0  0  0  0
    9.9049    2.4615    0.1405 H   0  0  0  0  0  0  0  0  0  0  0  0
    8.7742    1.5598    1.1783 H   0  0  0  0  0  0  0  0  0  0  0  0
    9.1239    0.9826   -0.4688 H   0  0  0  0  0  0  0  0  0  0  0  0
    6.2699    1.6165    0.6315 H   0  0  0  0  0  0  0  0  0  0  0  0
    6.7226    0.9426   -0.9519 H   0  0  0  0  0  0  0  0  0  0  0  0
    4.4587    4.6364   -2.6872 H   0  0  0  0  0  0  0  0  0  0  0  0
    4.8565    3.8600   -4.2371 H   0  0  0  0  0  0  0  0  0  0  0  0
    3.4691    1.9103   -3.6102 H   0  0  0  0  0  0  0  0  0  0  0  0
    2.5033    3.4063   -3.5780 H   0  0  0  0  0  0  0  0  0  0  0  0
    4.6160    0.8752    0.8836 H   0  0  0  0  0  0  0  0  0  0  0  0
    3.7670    2.4250    1.0569 H   0  0  0  0  0  0  0  0  0  0  0  0
    2.2551    0.5775    1.6654 H   0  0  0  0  0  0  0  0  0  0  0  0
    2.5315   -0.1960    0.0805 H   0  0  0  0  0  0  0  0  0  0  0  0
    0.4050    3.4575   -1.8154 H   0  0  0  0  0  0  0  0  0  0  0  0
    0.3555    2.2381   -3.1286 H   0  0  0  0  0  0  0  0  0  0  0  0
   -1.0290    0.7905   -1.8964 H   0  0  0  0  0  0  0  0  0  0  0  0
   -1.4902    2.2922   -1.0449 H   0  0  0  0  0  0  0  0  0  0  0  0
   -1.6369    1.2645    1.2043 H   0  0  0  0  0  0  0  0  0  0  0  0
    1.1138    2.9327    1.6901 H   0  0  0  0  0  0  0  0  0  0  0  0
    2.4518    3.4140    0.6193 H   0  0  0  0  0  0  0  0  0  0  0  0
    0.7665    3.6860    0.1152 H   0  0  0  0  0  0  0  0  0  0  0  0
    7.3020    3.9041   -3.5473 H   0  0  0  0  0  0  0  0  0  0  0  0
    6.8152    4.7826   -2.1664 H   0  0  0  0  0  0  0  0  0  0  0  0
    4.9843    3.7857    0.7279 H   0  0  0  0  0  0  0  0  0  0  0  0
    6.1425    4.5671   -0.3749 H   0  0  0  0  0  0  0  0  0  0  0  0
    4.4093    4.5387   -0.7790 H   0  0  0  0  0  0  0  0  0  0  0  0
  1  2  1  0  0  0  0
  1 29  1  0  0  0  0
  1 30  1  0  0  0  0
  1 31  1  0  0  0  0
  2  3  1  1  0  0  0
  2 26  1  0  0  0  0
  2  4  1  0  0  0  0
  4  5  1  0  0  0  0
  4 32  1  0  0  0  0
  4 33  1  0  0  0  0
  5 12  1  0  0  0  0
  5  6  1  0  0  0  0
  5 28  1  1  0  0  0
  6  7  1  6  0  0  0
  6  8  1  0  0  0  0
  6 25  1  0  0  0  0
  8  9  1  0  0  0  0
  8 34  1  0  0  0  0
  8 35  1  0  0  0  0
  9 10  1  0  0  0  0
  9 36  1  0  0  0  0
  9 37  1  0  0  0  0
 10 11  1  1  0  0  0
 10 17  1  0  0  0  0
 10 12  1  0  0  0  0
 12 13  1  6  0  0  0
 12 14  1  0  0  0  0
 14 15  1  0  0  0  0
 14 38  1  0  0  0  0
 14 39  1  0  0  0  0
 15 16  1  0  0  0  0
 15 40  1  0  0  0  0
 15 41  1  0  0  0  0
 16 21  1  0  0  0  0
 16 17  1  0  0  0  0
 16 24  1  1  0  0  0
 17 18  1  6  0  0  0
 17 19  1  0  0  0  0
 19 20  1  0  0  0  0
 19 42  1  0  0  0  0
 19 43  1  0  0  0  0
 20 21  1  0  0  0  0
 20 44  1  0  0  0  0
 20 45  1  0  0  0  0
 21 22  1  6  0  0  0
 21 23  1  0  0  0  0
 23 46  1  0  0  0  0
 24 47  1  0  0  0  0
 24 48  1  0  0  0  0
 24 49  1  0  0  0  0
 25 26  1  0  0  0  0
 25 50  1  0  0  0  0
 25 51  1  0  0  0  0
 26 27  2  0  0  0  0
 28 52  1  0  0  0  0
 28 53  1  0  0  0  0
 28 54  1  0  0  0  0
M  END
$$$$
