ZINC01530867
 OpenBabel08292219463D

 23 25  0  0  0  0  0  0  0  0999 V2000
    0.2462    2.4668   -0.7710 C   0  0  0  0  0  0  0  0  0  0  0  0
    1.1090    2.2997    0.4814 C   0  0  0  0  0  0  0  0  0  0  0  0
   -0.1923    1.6302    0.3540 N   0  0  0  0  0  0  0  0  0  0  0  0
    0.0021   -0.0041    0.0020 P   0  0  0  0  0  0  0  0  0  0  0  0
    0.9645   -0.8242    1.3709 S   0  0  0  0  0  0  0  0  0  0  0  0
   -1.5091   -0.7320   -0.1353 N   0  0  0  0  0  0  0  0  0  0  0  0
   -2.5700    0.2766   -0.2593 C   0  0  0  0  0  0  0  0  0  0  0  0
   -2.3298   -0.4698    1.0546 C   0  0  0  0  0  0  0  0  0  0  0  0
    0.8385   -0.1698   -1.4490 N   0  0  0  0  0  0  0  0  0  0  0  0
   -0.0641   -0.5798   -2.5331 C   0  0  0  0  0  0  0  0  0  0  0  0
    0.8888   -1.5763   -1.8700 C   0  0  0  0  0  0  0  0  0  0  0  0
    0.5715    1.9613   -1.6803 H   0  0  0  0  0  0  0  0  0  0  0  0
   -0.2556    3.4236   -0.9152 H   0  0  0  0  0  0  0  0  0  0  0  0
    1.1775    3.1460    1.1648 H   0  0  0  0  0  0  0  0  0  0  0  0
    2.0046    1.6832    0.4031 H   0  0  0  0  0  0  0  0  0  0  0  0
   -2.2693    1.3232   -0.3085 H   0  0  0  0  0  0  0  0  0  0  0  0
   -3.4551    0.0109   -0.8372 H   0  0  0  0  0  0  0  0  0  0  0  0
   -3.0563   -1.2287    1.3450 H   0  0  0  0  0  0  0  0  0  0  0  0
   -1.8694    0.0807    1.8750 H   0  0  0  0  0  0  0  0  0  0  0  0
   -1.1259   -0.6651   -2.3019 H   0  0  0  0  0  0  0  0  0  0  0  0
    0.1750   -0.2470   -3.5431 H   0  0  0  0  0  0  0  0  0  0  0  0
    1.7577   -1.9020   -2.4418 H   0  0  0  0  0  0  0  0  0  0  0  0
    0.4599   -2.3205   -1.1990 H   0  0  0  0  0  0  0  0  0  0  0  0
  1  3  1  0  0  0  0
  1  2  1  0  0  0  0
  1 12  1  0  0  0  0
  1 13  1  0  0  0  0
  2  3  1  0  0  0  0
  2 14  1  0  0  0  0
  2 15  1  0  0  0  0
  3  4  1  0  0  0  0
  4  5  2  0  0  0  0
  4  6  1  0  0  0  0
  4  9  1  0  0  0  0
  6  8  1  0  0  0  0
  6  7  1  0  0  0  0
  7  8  1  0  0  0  0
  7 16  1  0  0  0  0
  7 17  1  0  0  0  0
  8 18  1  0  0  0  0
  8 19  1  0  0  0  0
  9 11  1  0  0  0  0
  9 10  1  0  0  0  0
 10 11  1  0  0  0  0
 10 20  1  0  0  0  0
 10 21  1  0  0  0  0
 11 22  1  0  0  0  0
 11 23  1  0  0  0  0
M  END
$$$$
