ZINC18456284
 OpenBabel08292219463D

 55 57  0  0  1  0  0  0  0  0999 V2000
   -0.0065    1.3906    0.0548 C   0  0  0  0  0  0  0  0  0  0  0  0
    1.1758    2.0945    0.0374 C   0  0  0  0  0  0  0  0  0  0  0  0
    2.3913    1.4161    0.0154 C   0  0  0  0  0  0  0  0  0  0  0  0
    2.4149    0.0242    0.0109 C   0  0  0  0  0  0  0  0  0  0  0  0
    1.2360   -0.6855    0.0277 C   0  0  0  0  0  0  0  0  0  0  0  0
    0.0138   -0.0072    0.0503 C   0  0  0  0  0  0  0  0  0  0  0  0
   -1.2518   -0.7649    0.0693 C   0  0  0  0  0  0  0  0  0  0  0  0
   -2.3141   -0.1736    0.0890 O   0  0  0  0  0  0  0  0  0  0  0  0
   -1.2305   -2.1125    0.0650 N   0  0  0  0  0  0  0  0  0  0  0  0
   -2.4874   -2.8649    0.0839 C   0  0  2  0  0  0  0  0  0  0  0  0
   -3.2214   -2.3310    0.6874 H   0  0  0  0  0  0  0  0  0  0  0  0
   -2.2433   -4.2504    0.6854 C   0  0  0  0  0  0  0  0  0  0  0  0
   -1.8366   -4.1047    2.1532 C   0  0  0  0  0  0  0  0  0  0  0  0
   -1.5962   -5.4694    2.7456 C   0  0  0  0  0  0  0  0  0  0  0  0
   -1.7371   -6.4661    2.0577 O   0  0  0  0  0  0  0  0  0  0  0  0
   -1.2609   -5.5767    3.9129 O   0  0  0  0  0  1  0  0  0  0  0  0
   -3.0057   -3.0125   -1.3234 C   0  0  0  0  0  0  0  0  0  0  0  0
   -2.2253   -3.0568   -2.2590 O   0  0  0  0  0  0  0  0  0  0  0  0
   -4.2056   -3.0876   -1.5264 O   0  0  0  0  0  1  0  0  0  0  0  0
    3.5842    2.1303   -0.0026 N   0  0  0  0  0  0  0  0  0  0  0  0
    4.8641    1.4180   -0.0257 C   0  0  0  0  0  0  0  0  0  0  0  0
    6.0111    2.4305   -0.0421 C   0  0  1  0  0  0  0  0  0  0  0  0
    6.0157    2.9967    0.8892 H   0  0  0  0  0  0  0  0  0  0  0  0
    7.3493    1.6960   -0.2095 C   0  0  0  0  0  0  0  0  0  0  0  0
    7.3471    1.0221   -1.5159 N   0  0  0  0  0  0  0  0  0  0  0  0
    6.9105    1.7177   -2.6305 C   0  0  0  0  0  0  0  0  0  0  0  0
    6.1604    2.8763   -2.4733 C   0  0  0  0  0  0  0  0  0  0  0  0
    5.7249    3.5642   -3.6117 C   0  0  0  0  0  0  0  0  0  0  0  0
    5.0626    4.5853   -3.5090 O   0  0  0  0  0  0  0  0  0  0  0  0
    6.0531    3.0732   -4.8267 N   0  0  0  0  0  0  0  0  0  0  0  0
    6.7923    1.9349   -4.9273 C   0  0  0  0  0  0  0  0  0  0  0  0
    7.2048    1.2828   -3.8609 N   0  0  0  0  0  0  0  0  0  0  0  0
    7.1153    1.4554   -6.1705 N   0  0  0  0  0  0  0  0  0  0  0  0
    5.8482    3.3481   -1.1813 N   0  0  0  0  0  0  0  0  0  0  0  0
    5.4114    4.6092   -0.9934 C   0  0  0  0  0  0  0  0  0  0  0  0
    5.0541    4.9696    0.1086 O   0  0  0  0  0  0  0  0  0  0  0  0
   -0.9490    1.9175    0.0763 H   0  0  0  0  0  0  0  0  0  0  0  0
    1.1607    3.1744    0.0405 H   0  0  0  0  0  0  0  0  0  0  0  0
    3.3594   -0.4993   -0.0062 H   0  0  0  0  0  0  0  0  0  0  0  0
    1.2550   -1.7653    0.0235 H   0  0  0  0  0  0  0  0  0  0  0  0
   -0.3831   -2.5841    0.0493 H   0  0  0  0  0  0  0  0  0  0  0  0
   -3.1566   -4.8416    0.6184 H   0  0  0  0  0  0  0  0  0  0  0  0
   -1.4459   -4.7500    0.1353 H   0  0  0  0  0  0  0  0  0  0  0  0
   -0.9234   -3.5135    2.2202 H   0  0  0  0  0  0  0  0  0  0  0  0
   -2.6341   -3.6051    2.7033 H   0  0  0  0  0  0  0  0  0  0  0  0
    3.5689    3.1002    0.0003 H   0  0  0  0  0  0  0  0  0  0  0  0
    4.9466    0.7900    0.8614 H   0  0  0  0  0  0  0  0  0  0  0  0
    4.9169    0.7947   -0.9183 H   0  0  0  0  0  0  0  0  0  0  0  0
    8.1694    2.4127   -0.1674 H   0  0  0  0  0  0  0  0  0  0  0  0
    7.4649    0.9579    0.5842 H   0  0  0  0  0  0  0  0  0  0  0  0
    7.6475    0.1033   -1.5959 H   0  0  0  0  0  0  0  0  0  0  0  0
    6.8175    1.9265   -6.9645 H   0  0  0  0  0  0  0  0  0  0  0  0
    7.6416    0.6451   -6.2562 H   0  0  0  0  0  0  0  0  0  0  0  0
    5.3794    5.2989   -1.8238 H   0  0  0  0  0  0  0  0  0  0  0  0
    5.7609    3.5329   -5.6293 H   0  0  0  0  0  0  0  0  0  0  0  0
  1  6  2  0  0  0  0
  1  2  1  0  0  0  0
  1 37  1  0  0  0  0
  2  3  2  0  0  0  0
  2 38  1  0  0  0  0
  3  4  1  0  0  0  0
  3 20  1  0  0  0  0
  4  5  2  0  0  0  0
  4 39  1  0  0  0  0
  5  6  1  0  0  0  0
  5 40  1  0  0  0  0
  6  7  1  0  0  0  0
  7  8  2  0  0  0  0
  7  9  1  0  0  0  0
  9 10  1  0  0  0  0
  9 41  1  0  0  0  0
 10 11  1  1  0  0  0
 10 12  1  0  0  0  0
 10 17  1  0  0  0  0
 12 13  1  0  0  0  0
 12 42  1  0  0  0  0
 12 43  1  0  0  0  0
 13 14  1  0  0  0  0
 13 44  1  0  0  0  0
 13 45  1  0  0  0  0
 14 15  2  0  0  0  0
 14 16  1  0  0  0  0
 17 18  2  0  0  0  0
 17 19  1  0  0  0  0
 20 21  1  0  0  0  0
 20 46  1  0  0  0  0
 21 22  1  0  0  0  0
 21 47  1  0  0  0  0
 21 48  1  0  0  0  0
 22 23  1  1  0  0  0
 22 34  1  0  0  0  0
 22 24  1  0  0  0  0
 24 25  1  0  0  0  0
 24 49  1  0  0  0  0
 24 50  1  0  0  0  0
 25 26  1  0  0  0  0
 25 51  1  0  0  0  0
 26 32  1  0  0  0  0
 26 27  2  0  0  0  0
 27 28  1  0  0  0  0
 27 34  1  0  0  0  0
 28 29  2  0  0  0  0
 28 30  1  0  0  0  0
 30 31  1  0  0  0  0
 30 55  1  0  0  0  0
 31 32  2  0  0  0  0
 31 33  1  0  0  0  0
 33 52  1  0  0  0  0
 33 53  1  0  0  0  0
 34 35  1  0  0  0  0
 35 36  2  0  0  0  0
 35 54  1  0  0  0  0
M  END
$$$$
