ZINC00155531
 OpenBabel08292219463D

 47 48  0  0  1  0  0  0  0  0999 V2000
   -4.9599   -0.3603    1.2801 C   0  0  0  0  0  0  0  0  0  0  0  0
   -4.2619   -1.4645    0.6082 N   0  3  0  0  0  0  0  0  0  0  0  0
   -5.1137   -2.0045   -0.4598 C   0  0  0  0  0  0  0  0  0  0  0  0
   -3.0056   -0.9697    0.0296 C   0  0  0  0  0  0  0  0  0  0  0  0
   -2.2220   -2.1413   -0.5656 C   0  0  0  0  0  0  0  0  0  0  0  0
   -1.8396   -3.0383    0.4791 O   0  0  0  0  0  0  0  0  0  0  0  0
   -1.2065   -4.1642    0.1141 C   0  0  0  0  0  0  0  0  0  0  0  0
   -0.9378   -4.3567   -1.0480 O   0  0  0  0  0  0  0  0  0  0  0  0
   -0.8307   -5.1882    1.1540 C   0  0  1  0  0  0  0  0  0  0  0  0
   -1.4845   -5.0837    2.0198 H   0  0  0  0  0  0  0  0  0  0  0  0
   -0.9817   -6.5712    0.5746 C   0  0  0  0  0  0  0  0  0  0  0  0
   -0.2427   -6.9408   -0.5336 C   0  0  0  0  0  0  0  0  0  0  0  0
   -0.3812   -8.2094   -1.0650 C   0  0  0  0  0  0  0  0  0  0  0  0
   -1.2583   -9.1085   -0.4880 C   0  0  0  0  0  0  0  0  0  0  0  0
   -1.9967   -8.7392    0.6208 C   0  0  0  0  0  0  0  0  0  0  0  0
   -1.8550   -7.4721    1.1548 C   0  0  0  0  0  0  0  0  0  0  0  0
    0.6219   -4.9706    1.5825 C   0  0  0  0  0  0  0  0  0  0  0  0
    1.0423   -6.0557    2.5952 C   0  0  0  0  0  0  0  0  0  0  0  0
    1.9570   -5.3071    3.5962 C   0  0  0  0  0  0  0  0  0  0  0  0
    1.2623   -3.9292    3.7293 C   0  0  0  0  0  0  0  0  0  0  0  0
    0.7618   -3.6185    2.3036 C   0  0  0  0  0  0  0  0  0  0  0  0
    1.4796   -5.0072    0.4401 O   0  0  0  0  0  0  0  0  0  0  0  0
   -5.8921   -0.7274    1.7095 H   0  0  0  0  0  0  0  0  0  0  0  0
   -4.3278    0.0404    2.0726 H   0  0  0  0  0  0  0  0  0  0  0  0
   -5.1777    0.4255    0.5568 H   0  0  0  0  0  0  0  0  0  0  0  0
   -5.2345   -1.2551   -1.2421 H   0  0  0  0  0  0  0  0  0  0  0  0
   -4.6485   -2.8963   -0.8797 H   0  0  0  0  0  0  0  0  0  0  0  0
   -6.0903   -2.2627   -0.0502 H   0  0  0  0  0  0  0  0  0  0  0  0
   -3.2270   -0.2452   -0.7541 H   0  0  0  0  0  0  0  0  0  0  0  0
   -2.4102   -0.4925    0.8080 H   0  0  0  0  0  0  0  0  0  0  0  0
   -2.8476   -2.6683   -1.2860 H   0  0  0  0  0  0  0  0  0  0  0  0
   -1.3298   -1.7649   -1.0659 H   0  0  0  0  0  0  0  0  0  0  0  0
    0.4426   -6.2383   -0.9845 H   0  0  0  0  0  0  0  0  0  0  0  0
    0.1956   -8.4979   -1.9313 H   0  0  0  0  0  0  0  0  0  0  0  0
   -1.3671  -10.0994   -0.9036 H   0  0  0  0  0  0  0  0  0  0  0  0
   -2.6822   -9.4416    1.0715 H   0  0  0  0  0  0  0  0  0  0  0  0
   -2.4290   -7.1848    2.0234 H   0  0  0  0  0  0  0  0  0  0  0  0
    0.1684   -6.4601    3.1059 H   0  0  0  0  0  0  0  0  0  0  0  0
    1.5948   -6.8510    2.0948 H   0  0  0  0  0  0  0  0  0  0  0  0
    1.9813   -5.8219    4.5567 H   0  0  0  0  0  0  0  0  0  0  0  0
    2.9627   -5.1952    3.1912 H   0  0  0  0  0  0  0  0  0  0  0  0
    0.4239   -3.9901    4.4232 H   0  0  0  0  0  0  0  0  0  0  0  0
    1.9754   -3.1725    4.0566 H   0  0  0  0  0  0  0  0  0  0  0  0
    1.4845   -2.9905    1.7827 H   0  0  0  0  0  0  0  0  0  0  0  0
   -0.2052   -3.1174    2.3483 H   0  0  0  0  0  0  0  0  0  0  0  0
    2.4151   -4.8753    0.6463 H   0  0  0  0  0  0  0  0  0  0  0  0
   -4.0603   -2.1919    1.2778 H   0  0  0  0  0  0  0  0  0  0  0  0
  1  2  1  0  0  0  0
  1 23  1  0  0  0  0
  1 24  1  0  0  0  0
  1 25  1  0  0  0  0
  2  3  1  0  0  0  0
  2  4  1  0  0  0  0
  2 47  1  0  0  0  0
  3 26  1  0  0  0  0
  3 27  1  0  0  0  0
  3 28  1  0  0  0  0
  4  5  1  0  0  0  0
  4 29  1  0  0  0  0
  4 30  1  0  0  0  0
  5  6  1  0  0  0  0
  5 31  1  0  0  0  0
  5 32  1  0  0  0  0
  6  7  1  0  0  0  0
  7  8  2  0  0  0  0
  7  9  1  0  0  0  0
  9 10  1  1  0  0  0
  9 11  1  0  0  0  0
  9 17  1  0  0  0  0
 11 16  2  0  0  0  0
 11 12  1  0  0  0  0
 12 13  2  0  0  0  0
 12 33  1  0  0  0  0
 13 14  1  0  0  0  0
 13 34  1  0  0  0  0
 14 15  2  0  0  0  0
 14 35  1  0  0  0  0
 15 16  1  0  0  0  0
 15 36  1  0  0  0  0
 16 37  1  0  0  0  0
 17 21  1  0  0  0  0
 17 18  1  0  0  0  0
 17 22  1  0  0  0  0
 18 19  1  0  0  0  0
 18 38  1  0  0  0  0
 18 39  1  0  0  0  0
 19 20  1  0  0  0  0
 19 40  1  0  0  0  0
 19 41  1  0  0  0  0
 20 21  1  0  0  0  0
 20 42  1  0  0  0  0
 20 43  1  0  0  0  0
 21 44  1  0  0  0  0
 21 45  1  0  0  0  0
 22 46  1  0  0  0  0
M  CHG  1   2   1
M  END
$$$$
