ZINC03978029
 OpenBabel08292219463D

 61 62  0  0  1  0  0  0  0  0999 V2000
   -0.9057    1.5144    0.0751 C   0  0  0  0  0  0  0  0  0  0  0  0
   -0.7386   -0.0047    0.1486 C   0  0  0  0  0  0  0  0  0  0  0  0
   -2.1147   -0.6719    0.1019 C   0  0  0  0  0  0  0  0  0  0  0  0
   -1.9477   -2.1910    0.1754 C   0  0  2  0  0  0  0  0  0  0  0  0
   -1.3603   -2.4754    1.0485 H   0  0  0  0  0  0  0  0  0  0  0  0
   -1.3109   -2.7437   -1.1268 C   0  0  0  0  0  0  0  0  0  0  0  0
   -1.8288   -4.1965   -1.1776 C   0  0  2  0  0  0  0  0  0  0  0  0
   -2.0597   -4.4721   -2.2065 H   0  0  0  0  0  0  0  0  0  0  0  0
   -3.0521   -4.2531   -0.3565 N   0  3  1  0  0  0  0  0  0  0  0  0
   -3.3244   -2.9012    0.1775 C   0  0  0  0  0  0  0  0  0  0  0  0
   -4.1827   -4.6952   -1.1837 C   0  0  0  0  0  0  0  0  0  0  0  0
   -0.7880   -5.1317   -0.6179 C   0  0  0  0  0  0  0  0  0  0  0  0
   -0.8074   -5.4265    0.5584 O   0  0  0  0  0  0  0  0  0  0  0  0
    0.1644   -5.6404   -1.4245 N   0  0  0  0  0  0  0  0  0  0  0  0
    1.1073   -6.6355   -0.9075 C   0  0  2  0  0  0  0  0  0  0  0  0
    1.1530   -6.5625    0.1791 H   0  0  0  0  0  0  0  0  0  0  0  0
    2.4959   -6.3758   -1.4951 C   0  0  2  0  0  0  0  0  0  0  0  0
    2.4559   -6.4747   -2.5798 H   0  0  0  0  0  0  0  0  0  0  0  0
    3.4893   -7.3921   -0.9260 C   0  0  1  0  0  0  0  0  0  0  0  0
    4.4699   -7.2335   -1.3746 H   0  0  0  0  0  0  0  0  0  0  0  0
    3.5845   -7.2066    0.5916 C   0  0  1  0  0  0  0  0  0  0  0  0
    4.3316   -7.8894    0.9962 H   0  0  0  0  0  0  0  0  0  0  0  0
    3.9938   -5.7618    0.8936 C   0  0  2  0  0  0  0  0  0  0  0  0
    4.0103   -5.6058    1.9723 H   0  0  0  0  0  0  0  0  0  0  0  0
    2.9809   -4.8084    0.2542 C   0  0  2  0  0  0  0  0  0  0  0  0
    1.9980   -4.9729    0.6957 H   0  0  0  0  0  0  0  0  0  0  0  0
    2.9189   -5.0545   -1.1523 O   0  0  0  0  0  0  0  0  0  0  0  0
    3.4960   -3.0938    0.5464 S   0  0  0  0  0  0  0  0  0  0  0  0
    2.0872   -2.1079   -0.0313 C   0  0  0  0  0  0  0  0  0  0  0  0
    5.2934   -5.5111    0.3549 O   0  0  0  0  0  0  0  0  0  0  0  0
    2.3147   -7.4800    1.1872 O   0  0  0  0  0  0  0  0  0  0  0  0
    3.0386   -8.7161   -1.2191 O   0  0  0  0  0  0  0  0  0  0  0  0
    0.6391   -8.0367   -1.3054 C   0  0  1  0  0  0  0  0  0  0  0  0
    1.2738   -8.7817   -0.8256 H   0  0  0  0  0  0  0  0  0  0  0  0
   -0.8101   -8.2366   -0.8572 C   0  0  0  0  0  0  0  0  0  0  0  0
    0.7452   -8.2200   -3.0959 Cl  0  0  0  0  0  0  0  0  0  0  0  0
    0.0747    1.9897    0.1083 H   0  0  0  0  0  0  0  0  0  0  0  0
   -1.4070    1.7802   -0.8556 H   0  0  0  0  0  0  0  0  0  0  0  0
   -1.5037    1.8555    0.9201 H   0  0  0  0  0  0  0  0  0  0  0  0
   -0.1406   -0.3458   -0.6965 H   0  0  0  0  0  0  0  0  0  0  0  0
   -0.2373   -0.2705    1.0792 H   0  0  0  0  0  0  0  0  0  0  0  0
   -2.7127   -0.3308    0.9470 H   0  0  0  0  0  0  0  0  0  0  0  0
   -2.6160   -0.4061   -0.8287 H   0  0  0  0  0  0  0  0  0  0  0  0
   -1.6565   -2.1809   -1.9939 H   0  0  0  0  0  0  0  0  0  0  0  0
   -0.2230   -2.7244   -1.0621 H   0  0  0  0  0  0  0  0  0  0  0  0
   -3.7168   -2.9652    1.1924 H   0  0  0  0  0  0  0  0  0  0  0  0
   -4.0251   -2.3723   -0.4685 H   0  0  0  0  0  0  0  0  0  0  0  0
   -3.9721   -5.6855   -1.5875 H   0  0  0  0  0  0  0  0  0  0  0  0
   -5.0852   -4.7359   -0.5738 H   0  0  0  0  0  0  0  0  0  0  0  0
   -4.3297   -3.9923   -2.0037 H   0  0  0  0  0  0  0  0  0  0  0  0
    0.2256   -5.3478   -2.3472 H   0  0  0  0  0  0  0  0  0  0  0  0
    2.2976   -1.0493    0.1212 H   0  0  0  0  0  0  0  0  0  0  0  0
    1.9225   -2.2963   -1.0922 H   0  0  0  0  0  0  0  0  0  0  0  0
    1.1949   -2.3855    0.5298 H   0  0  0  0  0  0  0  0  0  0  0  0
    5.6167   -4.6129    0.5096 H   0  0  0  0  0  0  0  0  0  0  0  0
    2.3000   -7.3739    2.1482 H   0  0  0  0  0  0  0  0  0  0  0  0
    3.6215   -9.4126   -0.8871 H   0  0  0  0  0  0  0  0  0  0  0  0
   -1.4448   -7.4915   -1.3370 H   0  0  0  0  0  0  0  0  0  0  0  0
   -1.1437   -9.2348   -1.1407 H   0  0  0  0  0  0  0  0  0  0  0  0
   -0.8743   -8.1257    0.2252 H   0  0  0  0  0  0  0  0  0  0  0  0
   -2.9189   -4.8988    0.4073 H   0  0  0  0  0  0  0  0  0  0  0  0
  1  2  1  0  0  0  0
  1 37  1  0  0  0  0
  1 38  1  0  0  0  0
  1 39  1  0  0  0  0
  2  3  1  0  0  0  0
  2 40  1  0  0  0  0
  2 41  1  0  0  0  0
  3  4  1  0  0  0  0
  3 42  1  0  0  0  0
  3 43  1  0  0  0  0
  4  5  1  1  0  0  0
  4 10  1  0  0  0  0
  4  6  1  0  0  0  0
  6  7  1  0  0  0  0
  6 44  1  0  0  0  0
  6 45  1  0  0  0  0
  7  8  1  6  0  0  0
  7  9  1  0  0  0  0
  7 12  1  0  0  0  0
  9 10  1  0  0  0  0
  9 11  1  0  0  0  0
  9 61  1  1  0  0  0
 10 46  1  0  0  0  0
 10 47  1  0  0  0  0
 11 48  1  0  0  0  0
 11 49  1  0  0  0  0
 11 50  1  0  0  0  0
 12 13  2  0  0  0  0
 12 14  1  0  0  0  0
 14 15  1  0  0  0  0
 14 51  1  0  0  0  0
 15 16  1  1  0  0  0
 15 17  1  0  0  0  0
 15 33  1  0  0  0  0
 17 18  1  6  0  0  0
 17 27  1  0  0  0  0
 17 19  1  0  0  0  0
 19 20  1  6  0  0  0
 19 21  1  0  0  0  0
 19 32  1  0  0  0  0
 21 22  1  1  0  0  0
 21 23  1  0  0  0  0
 21 31  1  0  0  0  0
 23 24  1  1  0  0  0
 23 25  1  0  0  0  0
 23 30  1  0  0  0  0
 25 26  1  1  0  0  0
 25 27  1  0  0  0  0
 25 28  1  0  0  0  0
 28 29  1  0  0  0  0
 29 52  1  0  0  0  0
 29 53  1  0  0  0  0
 29 54  1  0  0  0  0
 30 55  1  0  0  0  0
 31 56  1  0  0  0  0
 32 57  1  0  0  0  0
 33 34  1  1  0  0  0
 33 35  1  0  0  0  0
 33 36  1  0  0  0  0
 35 58  1  0  0  0  0
 35 59  1  0  0  0  0
 35 60  1  0  0  0  0
M  CHG  1   9   1
M  END
$$$$
