ZINC04658552
 OpenBabel08292219463D

 10  9  0  0  0  0  0  0  0  0999 V2000
   -0.0184    1.5028    0.0103 C   0  0  0  0  0  0  0  0  0  0  0  0
    0.0021   -0.0041    0.0020 C   0  0  0  0  0  0  0  0  0  0  0  0
    1.0661   -0.5992   -0.0113 O   0  0  0  0  0  0  0  0  0  0  0  0
   -1.0454   -0.6280    0.0087 O   0  0  0  0  0  1  0  0  0  0  0  0
    1.3598    2.0112   -0.0001 N   0  3  0  0  0  0  0  0  0  0  0  0
   -0.5455    1.8639   -0.8728 H   0  0  0  0  0  0  0  0  0  0  0  0
   -0.5286    1.8543    0.9071 H   0  0  0  0  0  0  0  0  0  0  0  0
    1.8478    1.6770    0.8173 H   0  0  0  0  0  0  0  0  0  0  0  0
    1.8321    1.6858   -0.8303 H   0  0  0  0  0  0  0  0  0  0  0  0
    1.3461    3.0201    0.0054 H   0  0  0  0  0  0  0  0  0  0  0  0
  1  2  1  0  0  0  0
  1  5  1  0  0  0  0
  1  6  1  0  0  0  0
  1  7  1  0  0  0  0
  2  3  2  0  0  0  0
  2  4  1  0  0  0  0
  5  8  1  0  0  0  0
  5  9  1  0  0  0  0
  5 10  1  0  0  0  0
M  CHG  1   5   1
M  END
$$$$
