ZINC01537194
 OpenBabel08292219463D

 47 48  0  0  1  0  0  0  0  0999 V2000
    0.0021   -0.0041    0.0020 C   0  0  0  0  0  0  0  0  0  0  0  0
   -0.0167    1.3772    0.0096 C   0  0  0  0  0  0  0  0  0  0  0  0
    1.1759    2.0860    0.0020 C   0  0  0  0  0  0  0  0  0  0  0  0
    2.3846    1.4052   -0.0127 C   0  0  0  0  0  0  0  0  0  0  0  0
    2.3980    0.0239   -0.0207 C   0  0  0  0  0  0  0  0  0  0  0  0
    1.2080   -0.6802   -0.0131 C   0  0  0  0  0  0  0  0  0  0  0  0
    1.2256   -2.1871   -0.0209 C   0  0  0  0  0  0  0  0  0  0  0  0
    1.2174   -2.6898   -1.4659 C   0  0  0  0  0  0  0  0  0  0  0  0
    1.2352   -4.2196   -1.4738 C   0  0  0  0  0  0  0  0  0  0  0  0
    1.2271   -4.7223   -2.9188 C   0  0  0  0  0  0  0  0  0  0  0  0
    1.2369   -6.7107   -4.3005 C   0  0  0  0  0  0  0  0  0  0  0  0
    1.2551   -8.2403   -4.2675 C   0  0  1  0  0  0  0  0  0  0  0  0
    0.3744   -8.6027   -3.7374 H   0  0  0  0  0  0  0  0  0  0  0  0
    1.2477   -8.7732   -5.6771 C   0  0  0  0  0  0  0  0  0  0  0  0
    2.4357   -8.9002   -6.3727 C   0  0  0  0  0  0  0  0  0  0  0  0
    2.4347   -9.3939   -7.6640 C   0  0  0  0  0  0  0  0  0  0  0  0
    1.2401   -9.7520   -8.2679 C   0  0  0  0  0  0  0  0  0  0  0  0
    0.0438   -9.6189   -7.5698 C   0  0  0  0  0  0  0  0  0  0  0  0
    0.0524   -9.1287   -6.2738 C   0  0  0  0  0  0  0  0  0  0  0  0
   -1.1312   -9.9694   -8.1580 O   0  0  0  0  0  0  0  0  0  0  0  0
    1.2369  -10.2322   -9.5403 O   0  0  0  0  0  0  0  0  0  0  0  0
    2.4337   -8.6883   -3.5951 O   0  0  0  0  0  0  0  0  0  0  0  0
    1.1601    3.4449    0.0090 O   0  0  0  0  0  0  0  0  0  0  0  0
   -0.9260   -0.5563    0.0083 H   0  0  0  0  0  0  0  0  0  0  0  0
   -0.9589    1.9049    0.0169 H   0  0  0  0  0  0  0  0  0  0  0  0
    3.3144    1.9547   -0.0183 H   0  0  0  0  0  0  0  0  0  0  0  0
    3.3387   -0.5065   -0.0325 H   0  0  0  0  0  0  0  0  0  0  0  0
    2.1247   -2.5426    0.4824 H   0  0  0  0  0  0  0  0  0  0  0  0
    0.3449   -2.5634    0.4997 H   0  0  0  0  0  0  0  0  0  0  0  0
    0.3183   -2.3343   -1.9692 H   0  0  0  0  0  0  0  0  0  0  0  0
    2.0981   -2.3135   -1.9865 H   0  0  0  0  0  0  0  0  0  0  0  0
    2.1343   -4.5752   -0.9705 H   0  0  0  0  0  0  0  0  0  0  0  0
    0.3546   -4.5959   -0.9533 H   0  0  0  0  0  0  0  0  0  0  0  0
    0.3280   -4.3668   -3.4222 H   0  0  0  0  0  0  0  0  0  0  0  0
    2.1077   -4.3461   -3.4394 H   0  0  0  0  0  0  0  0  0  0  0  0
    0.3379   -6.3690   -4.8134 H   0  0  0  0  0  0  0  0  0  0  0  0
    2.1176   -6.3482   -4.8306 H   0  0  0  0  0  0  0  0  0  0  0  0
    3.3669   -8.6169   -5.9049 H   0  0  0  0  0  0  0  0  0  0  0  0
    3.3646   -9.4959   -8.2038 H   0  0  0  0  0  0  0  0  0  0  0  0
   -0.8747   -9.0247   -5.7296 H   0  0  0  0  0  0  0  0  0  0  0  0
   -1.5609   -9.2486   -8.6385 H   0  0  0  0  0  0  0  0  0  0  0  0
    1.1465   -9.5488  -10.2184 H   0  0  0  0  0  0  0  0  0  0  0  0
    3.2576   -8.4020   -4.0127 H   0  0  0  0  0  0  0  0  0  0  0  0
    1.1638    3.8337    0.8944 H   0  0  0  0  0  0  0  0  0  0  0  0
    1.2444   -6.1973   -2.9176 N   0  3  0  0  0  0  0  0  0  0  0  0
    0.4148   -6.5453   -2.4227 H   0  0  0  0  0  0  0  0  0  0  0  0
    2.0913   -6.5257   -2.4390 H   0  0  0  0  0  0  0  0  0  0  0  0
  1  6  2  0  0  0  0
  1  2  1  0  0  0  0
  1 24  1  0  0  0  0
  2  3  2  0  0  0  0
  2 25  1  0  0  0  0
  3  4  1  0  0  0  0
  3 23  1  0  0  0  0
  4  5  2  0  0  0  0
  4 26  1  0  0  0  0
  5  6  1  0  0  0  0
  5 27  1  0  0  0  0
  6  7  1  0  0  0  0
  7  8  1  0  0  0  0
  7 28  1  0  0  0  0
  7 29  1  0  0  0  0
  8  9  1  0  0  0  0
  8 30  1  0  0  0  0
  8 31  1  0  0  0  0
  9 10  1  0  0  0  0
  9 32  1  0  0  0  0
  9 33  1  0  0  0  0
 10 34  1  0  0  0  0
 10 35  1  0  0  0  0
 10 45  1  0  0  0  0
 11 12  1  0  0  0  0
 11 36  1  0  0  0  0
 11 37  1  0  0  0  0
 11 45  1  0  0  0  0
 12 13  1  1  0  0  0
 12 14  1  0  0  0  0
 12 22  1  0  0  0  0
 14 19  2  0  0  0  0
 14 15  1  0  0  0  0
 15 16  2  0  0  0  0
 15 38  1  0  0  0  0
 16 17  1  0  0  0  0
 16 39  1  0  0  0  0
 17 18  2  0  0  0  0
 17 21  1  0  0  0  0
 18 19  1  0  0  0  0
 18 20  1  0  0  0  0
 19 40  1  0  0  0  0
 20 41  1  0  0  0  0
 21 42  1  0  0  0  0
 22 43  1  0  0  0  0
 23 44  1  0  0  0  0
 45 46  1  0  0  0  0
 45 47  1  0  0  0  0
M  CHG  1  45   1
M  END
$$$$
