ZINC01530940
 OpenBabel08292219463D

 49 50  0  0  0  0  0  0  0  0999 V2000
   -0.0187    1.5258    0.0104 C   0  0  0  0  0  0  0  0  0  0  0  0
    0.0021   -0.0041    0.0020 C   0  0  0  0  0  0  0  0  0  0  0  0
    0.7421   -0.5109    1.2415 C   0  0  0  0  0  0  0  0  0  0  0  0
    0.7628   -2.0407    1.2331 C   0  0  0  0  0  0  0  0  0  0  0  0
    1.4540   -2.5141    2.3908 O   0  0  0  0  0  0  0  0  0  0  0  0
    1.5625   -3.8585    2.5365 C   0  0  0  0  0  0  0  0  0  0  0  0
    1.0176   -4.7057    1.5776 C   0  0  0  0  0  0  0  0  0  0  0  0
    1.1250   -6.0653    1.7198 C   0  0  0  0  0  0  0  0  0  0  0  0
    1.7847   -6.6003    2.8332 C   0  0  0  0  0  0  0  0  0  0  0  0
    2.3317   -5.7428    3.7958 C   0  0  0  0  0  0  0  0  0  0  0  0
    2.2234   -4.3847    3.6414 C   0  0  0  0  0  0  0  0  0  0  0  0
    1.9023   -8.0557    2.9909 C   0  0  0  0  0  0  0  0  0  0  0  0
    1.4275   -8.7965    2.1560 O   0  0  0  0  0  0  0  0  0  0  0  0
    2.6128   -8.6287    4.1900 C   0  0  0  0  0  0  0  0  0  0  0  0
    2.5939  -10.1566    4.1120 C   0  0  0  0  0  0  0  0  0  0  0  0
    3.2865  -10.7152    5.2808 N   0  3  0  0  0  0  0  0  0  0  0  0
    4.7031  -10.3332    5.2370 C   0  0  0  0  0  0  0  0  0  0  0  0
    5.4120  -10.8438    6.4933 C   0  0  0  0  0  0  0  0  0  0  0  0
    5.2947  -12.3695    6.5545 C   0  0  0  0  0  0  0  0  0  0  0  0
    3.8141  -12.7594    6.5247 C   0  0  0  0  0  0  0  0  0  0  0  0
    3.1644  -12.1778    5.2673 C   0  0  0  0  0  0  0  0  0  0  0  0
    1.0039    1.9031    0.0027 H   0  0  0  0  0  0  0  0  0  0  0  0
   -0.5459    1.8868   -0.8726 H   0  0  0  0  0  0  0  0  0  0  0  0
   -0.5289    1.8773    0.9072 H   0  0  0  0  0  0  0  0  0  0  0  0
   -1.0205   -0.3814    0.0098 H   0  0  0  0  0  0  0  0  0  0  0  0
    0.5123   -0.3556   -0.8948 H   0  0  0  0  0  0  0  0  0  0  0  0
    1.7647   -0.1336    1.2338 H   0  0  0  0  0  0  0  0  0  0  0  0
    0.2319   -0.1594    2.1383 H   0  0  0  0  0  0  0  0  0  0  0  0
   -0.2598   -2.4180    1.2409 H   0  0  0  0  0  0  0  0  0  0  0  0
    1.2730   -2.3923    0.3363 H   0  0  0  0  0  0  0  0  0  0  0  0
    0.5087   -4.2920    0.7195 H   0  0  0  0  0  0  0  0  0  0  0  0
    0.7012   -6.7223    0.9748 H   0  0  0  0  0  0  0  0  0  0  0  0
    2.8414   -6.1505    4.6563 H   0  0  0  0  0  0  0  0  0  0  0  0
    2.6484   -3.7225    4.3811 H   0  0  0  0  0  0  0  0  0  0  0  0
    3.6449   -8.2783    4.2025 H   0  0  0  0  0  0  0  0  0  0  0  0
    2.1081   -8.3051    5.1003 H   0  0  0  0  0  0  0  0  0  0  0  0
    1.5618  -10.5070    4.0994 H   0  0  0  0  0  0  0  0  0  0  0  0
    3.0986  -10.4802    3.2016 H   0  0  0  0  0  0  0  0  0  0  0  0
    5.1696  -10.7702    4.3541 H   0  0  0  0  0  0  0  0  0  0  0  0
    4.7849   -9.2473    5.1902 H   0  0  0  0  0  0  0  0  0  0  0  0
    6.4641  -10.5608    6.4580 H   0  0  0  0  0  0  0  0  0  0  0  0
    4.9464  -10.4072    7.3768 H   0  0  0  0  0  0  0  0  0  0  0  0
    5.8047  -12.8090    5.6973 H   0  0  0  0  0  0  0  0  0  0  0  0
    5.7490  -12.7333    7.4762 H   0  0  0  0  0  0  0  0  0  0  0  0
    3.7239  -13.8456    6.5119 H   0  0  0  0  0  0  0  0  0  0  0  0
    3.3153  -12.3625    7.4089 H   0  0  0  0  0  0  0  0  0  0  0  0
    2.1101  -12.4537    5.2428 H   0  0  0  0  0  0  0  0  0  0  0  0
    3.6637  -12.5755    4.3837 H   0  0  0  0  0  0  0  0  0  0  0  0
    2.8681  -10.3516    6.1239 H   0  0  0  0  0  0  0  0  0  0  0  0
  1  2  1  0  0  0  0
  1 22  1  0  0  0  0
  1 23  1  0  0  0  0
  1 24  1  0  0  0  0
  2  3  1  0  0  0  0
  2 25  1  0  0  0  0
  2 26  1  0  0  0  0
  3  4  1  0  0  0  0
  3 27  1  0  0  0  0
  3 28  1  0  0  0  0
  4  5  1  0  0  0  0
  4 29  1  0  0  0  0
  4 30  1  0  0  0  0
  5  6  1  0  0  0  0
  6 11  2  0  0  0  0
  6  7  1  0  0  0  0
  7  8  2  0  0  0  0
  7 31  1  0  0  0  0
  8  9  1  0  0  0  0
  8 32  1  0  0  0  0
  9 10  2  0  0  0  0
  9 12  1  0  0  0  0
 10 11  1  0  0  0  0
 10 33  1  0  0  0  0
 11 34  1  0  0  0  0
 12 13  2  0  0  0  0
 12 14  1  0  0  0  0
 14 15  1  0  0  0  0
 14 35  1  0  0  0  0
 14 36  1  0  0  0  0
 15 16  1  0  0  0  0
 15 37  1  0  0  0  0
 15 38  1  0  0  0  0
 16 21  1  0  0  0  0
 16 17  1  0  0  0  0
 16 49  1  0  0  0  0
 17 18  1  0  0  0  0
 17 39  1  0  0  0  0
 17 40  1  0  0  0  0
 18 19  1  0  0  0  0
 18 41  1  0  0  0  0
 18 42  1  0  0  0  0
 19 20  1  0  0  0  0
 19 43  1  0  0  0  0
 19 44  1  0  0  0  0
 20 21  1  0  0  0  0
 20 45  1  0  0  0  0
 20 46  1  0  0  0  0
 21 47  1  0  0  0  0
 21 48  1  0  0  0  0
M  CHG  1  16   1
M  END
$$$$
