ZINC14210457
 OpenBabel08292219463D

 82 84  0  0  1  0  0  0  0  0999 V2000
   -5.0761   -0.5653    0.0539 C   0  0  0  0  0  0  0  0  0  0  0  0
   -4.3227   -0.4623   -1.2738 C   0  0  0  0  0  0  0  0  0  0  0  0
   -4.0050    0.9399   -1.7972 C   0  0  2  0  0  0  0  0  0  0  0  0
   -4.1151    1.1544   -2.8603 H   0  0  0  0  0  0  0  0  0  0  0  0
   -2.8446    0.0732   -1.2569 C   0  0  1  0  0  0  0  0  0  0  0  0
   -2.0905   -0.3569   -1.9161 H   0  0  0  0  0  0  0  0  0  0  0  0
   -2.3530    0.8142    0.0052 C   0  0  2  0  0  0  0  0  0  0  0  0
   -2.0697    0.1006    0.7788 H   0  0  0  0  0  0  0  0  0  0  0  0
   -3.5159    1.6193    0.4459 N   0  0  0  0  0  0  0  0  0  0  0  0
   -4.1100    2.1250   -0.8134 C   0  0  0  0  0  0  0  0  0  0  0  0
   -3.9377    1.8412    1.7066 C   0  0  0  0  0  0  0  0  0  0  0  0
   -3.3808    1.2977    2.6369 O   0  0  0  0  0  0  0  0  0  0  0  0
   -5.1013    2.7646    1.9603 C   0  0  2  0  0  0  0  0  0  0  0  0
   -5.8084    2.6936    1.1339 H   0  0  0  0  0  0  0  0  0  0  0  0
   -4.5946    4.2037    2.0757 C   0  0  0  0  0  0  0  0  0  0  0  0
   -3.9376    4.6202    0.7583 C   0  0  0  0  0  0  0  0  0  0  0  0
   -5.7701    5.1357    2.3765 C   0  0  0  0  0  0  0  0  0  0  0  0
   -3.5695    4.2942    3.2079 C   0  0  0  0  0  0  0  0  0  0  0  0
   -5.7672    2.3799    3.2072 N   0  0  0  0  0  0  0  0  0  0  0  0
   -7.0659    2.6849    3.3995 C   0  0  0  0  0  0  0  0  0  0  0  0
   -7.6848    3.2793    2.5381 O   0  0  0  0  0  0  0  0  0  0  0  0
   -7.6785    2.3309    4.5466 N   0  0  0  0  0  0  0  0  0  0  0  0
   -9.0901    2.6624    4.7556 C   0  0  0  0  0  0  0  0  0  0  0  0
   -9.9361    2.0013    3.6656 C   0  0  0  0  0  0  0  0  0  0  0  0
   -9.5362    2.1519    6.1272 C   0  0  0  0  0  0  0  0  0  0  0  0
   -9.2724    4.1802    4.6923 C   0  0  0  0  0  0  0  0  0  0  0  0
   -1.1901    1.7116   -0.3318 C   0  0  0  0  0  0  0  0  0  0  0  0
   -1.3728    2.8954   -0.5219 O   0  0  0  0  0  0  0  0  0  0  0  0
    0.0529    1.1985   -0.4219 N   0  0  0  0  0  0  0  0  0  0  0  0
    1.1825    2.0698   -0.7554 C   0  0  2  0  0  0  0  0  0  0  0  0
    0.8808    2.7764   -1.3954 H   0  0  0  0  0  0  0  0  0  0  0  0
    2.2944    1.2392   -1.3995 C   0  0  0  0  0  0  0  0  0  0  0  0
    1.8045    0.6816   -2.7374 C   0  0  0  0  0  0  0  0  0  0  0  0
    1.0386   -0.6457   -2.6082 C   0  0  0  0  0  0  0  0  0  0  0  0
    1.7713   -1.0999   -3.8837 C   0  0  0  0  0  0  0  0  0  0  0  0
    2.8796   -0.1018   -3.5090 C   0  0  0  0  0  0  0  0  0  0  0  0
    1.7040    2.7191    0.5006 C   0  0  0  0  0  0  0  0  0  0  0  0
    1.4546    2.2354    1.5788 O   0  0  0  0  0  0  0  0  0  0  0  0
    2.5277    3.9587    0.4121 C   0  0  0  0  0  0  0  0  0  0  0  0
    2.7782    4.4448   -0.6713 O   0  0  0  0  0  0  0  0  0  0  0  0
    2.9940    4.5395    1.5354 N   0  0  0  0  0  0  0  0  0  0  0  0
   -4.6554   -1.5416   -2.3059 C   0  0  0  0  0  0  0  0  0  0  0  0
   -6.0794   -0.9511   -0.1267 H   0  0  0  0  0  0  0  0  0  0  0  0
   -4.5423   -1.2401    0.7231 H   0  0  0  0  0  0  0  0  0  0  0  0
   -5.1432    0.4219    0.5111 H   0  0  0  0  0  0  0  0  0  0  0  0
   -5.1536    2.3989   -0.6582 H   0  0  0  0  0  0  0  0  0  0  0  0
   -3.5445    2.9801   -1.1839 H   0  0  0  0  0  0  0  0  0  0  0  0
   -4.6771    4.5905   -0.0419 H   0  0  0  0  0  0  0  0  0  0  0  0
   -3.5447    5.6326    0.8524 H   0  0  0  0  0  0  0  0  0  0  0  0
   -3.1229    3.9344    0.5258 H   0  0  0  0  0  0  0  0  0  0  0  0
   -6.2382    4.8389    3.3150 H   0  0  0  0  0  0  0  0  0  0  0  0
   -5.4092    6.1609    2.4587 H   0  0  0  0  0  0  0  0  0  0  0  0
   -6.5005    5.0712    1.5699 H   0  0  0  0  0  0  0  0  0  0  0  0
   -2.7320    3.6302    2.9936 H   0  0  0  0  0  0  0  0  0  0  0  0
   -3.2085    5.3194    3.2901 H   0  0  0  0  0  0  0  0  0  0  0  0
   -4.0375    3.9974    4.1465 H   0  0  0  0  0  0  0  0  0  0  0  0
   -5.2735    1.9057    3.8944 H   0  0  0  0  0  0  0  0  0  0  0  0
   -7.1848    1.8567    5.2338 H   0  0  0  0  0  0  0  0  0  0  0  0
   -9.8062    0.9200    3.7106 H   0  0  0  0  0  0  0  0  0  0  0  0
  -10.9863    2.2479    3.8211 H   0  0  0  0  0  0  0  0  0  0  0  0
   -9.6183    2.3650    2.6884 H   0  0  0  0  0  0  0  0  0  0  0  0
   -8.9335    2.6229    6.9038 H   0  0  0  0  0  0  0  0  0  0  0  0
  -10.5865    2.3986    6.2828 H   0  0  0  0  0  0  0  0  0  0  0  0
   -9.4064    1.0706    6.1723 H   0  0  0  0  0  0  0  0  0  0  0  0
   -8.9546    4.5439    3.7152 H   0  0  0  0  0  0  0  0  0  0  0  0
  -10.3226    4.4268    4.8479 H   0  0  0  0  0  0  0  0  0  0  0  0
   -8.6697    4.6512    5.4689 H   0  0  0  0  0  0  0  0  0  0  0  0
    0.1991    0.2517   -0.2698 H   0  0  0  0  0  0  0  0  0  0  0  0
    3.1681    1.8691   -1.5665 H   0  0  0  0  0  0  0  0  0  0  0  0
    2.5617    0.4149   -0.7383 H   0  0  0  0  0  0  0  0  0  0  0  0
    1.2882    1.4265   -3.3429 H   0  0  0  0  0  0  0  0  0  0  0  0
    1.3075   -1.2205   -1.7220 H   0  0  0  0  0  0  0  0  0  0  0  0
   -0.0389   -0.5422   -2.7360 H   0  0  0  0  0  0  0  0  0  0  0  0
    1.2450   -0.8431   -4.8030 H   0  0  0  0  0  0  0  0  0  0  0  0
    2.0940   -2.1408   -3.8574 H   0  0  0  0  0  0  0  0  0  0  0  0
    3.2862    0.4400   -4.3629 H   0  0  0  0  0  0  0  0  0  0  0  0
    3.6528   -0.5277   -2.8695 H   0  0  0  0  0  0  0  0  0  0  0  0
    2.7938    4.1510    2.4013 H   0  0  0  0  0  0  0  0  0  0  0  0
    3.5299    5.3459    1.4779 H   0  0  0  0  0  0  0  0  0  0  0  0
   -4.4625   -1.1581   -3.3078 H   0  0  0  0  0  0  0  0  0  0  0  0
   -4.0343   -2.4192   -2.1269 H   0  0  0  0  0  0  0  0  0  0  0  0
   -5.7066   -1.8164   -2.2182 H   0  0  0  0  0  0  0  0  0  0  0  0
  1  2  1  0  0  0  0
  1 43  1  0  0  0  0
  1 44  1  0  0  0  0
  1 45  1  0  0  0  0
  2  5  1  0  0  0  0
  2  3  1  0  0  0  0
  2 42  1  0  0  0  0
  3  4  1  6  0  0  0
  3 10  1  0  0  0  0
  3  5  1  0  0  0  0
  5  6  1  6  0  0  0
  5  7  1  0  0  0  0
  7  8  1  1  0  0  0
  7  9  1  0  0  0  0
  7 27  1  0  0  0  0
  9 10  1  0  0  0  0
  9 11  1  0  0  0  0
 10 46  1  0  0  0  0
 10 47  1  0  0  0  0
 11 12  2  0  0  0  0
 11 13  1  0  0  0  0
 13 14  1  6  0  0  0
 13 15  1  0  0  0  0
 13 19  1  0  0  0  0
 15 16  1  0  0  0  0
 15 17  1  0  0  0  0
 15 18  1  0  0  0  0
 16 48  1  0  0  0  0
 16 49  1  0  0  0  0
 16 50  1  0  0  0  0
 17 51  1  0  0  0  0
 17 52  1  0  0  0  0
 17 53  1  0  0  0  0
 18 54  1  0  0  0  0
 18 55  1  0  0  0  0
 18 56  1  0  0  0  0
 19 20  1  0  0  0  0
 19 57  1  0  0  0  0
 20 21  2  0  0  0  0
 20 22  1  0  0  0  0
 22 23  1  0  0  0  0
 22 58  1  0  0  0  0
 23 24  1  0  0  0  0
 23 25  1  0  0  0  0
 23 26  1  0  0  0  0
 24 59  1  0  0  0  0
 24 60  1  0  0  0  0
 24 61  1  0  0  0  0
 25 62  1  0  0  0  0
 25 63  1  0  0  0  0
 25 64  1  0  0  0  0
 26 65  1  0  0  0  0
 26 66  1  0  0  0  0
 26 67  1  0  0  0  0
 27 28  2  0  0  0  0
 27 29  1  0  0  0  0
 29 30  1  0  0  0  0
 29 68  1  0  0  0  0
 30 31  1  6  0  0  0
 30 32  1  0  0  0  0
 30 37  1  0  0  0  0
 32 33  1  0  0  0  0
 32 69  1  0  0  0  0
 32 70  1  0  0  0  0
 33 36  1  0  0  0  0
 33 34  1  0  0  0  0
 33 71  1  0  0  0  0
 34 35  1  0  0  0  0
 34 72  1  0  0  0  0
 34 73  1  0  0  0  0
 35 36  1  0  0  0  0
 35 74  1  0  0  0  0
 35 75  1  0  0  0  0
 36 76  1  0  0  0  0
 36 77  1  0  0  0  0
 37 38  2  0  0  0  0
 37 39  1  0  0  0  0
 39 40  2  0  0  0  0
 39 41  1  0  0  0  0
 41 78  1  0  0  0  0
 41 79  1  0  0  0  0
 42 80  1  0  0  0  0
 42 81  1  0  0  0  0
 42 82  1  0  0  0  0
M  END
$$$$
