ZINC96006009
 OpenBabel08292219463D

 30 31  0  0  0  0  0  0  0  0999 V2000
   -0.0184    1.5028    0.0103 C   0  0  0  0  0  0  0  0  0  0  0  0
    0.0021   -0.0041    0.0020 C   0  0  0  0  0  0  0  0  0  0  0  0
    0.0081   -0.8210   -1.1362 C   0  0  0  0  0  0  0  0  0  0  0  0
    0.0275   -2.0660   -0.7453 N   0  0  0  0  0  0  0  0  0  0  0  0
    0.0346   -2.0827    0.6707 O   0  0  0  0  0  0  0  0  0  0  0  0
    0.0239   -0.8085    1.0974 C   0  0  0  0  0  0  0  0  0  0  0  0
    0.0305   -0.3906    2.4152 N   0  0  0  0  0  2  0  0  0  0  0  0
    0.0580   -1.5072    3.6379 S   0  0  0  0  0  0  0  0  0  0  0  0
   -1.1783   -2.2053    3.5781 O   0  0  0  0  0  0  0  0  0  0  0  0
    1.3121   -2.1701    3.5544 O   0  0  0  0  0  0  0  0  0  0  0  0
    0.0598   -0.6156    5.1577 C   0  0  0  0  0  0  0  0  0  0  0  0
    1.2588   -0.2447    5.7384 C   0  0  0  0  0  0  0  0  0  0  0  0
    1.2639    0.4542    6.9295 C   0  0  0  0  0  0  0  0  0  0  0  0
    0.0628    0.7845    7.5443 C   0  0  0  0  0  0  0  0  0  0  0  0
   -1.1398    0.4103    6.9582 C   0  0  0  0  0  0  0  0  0  0  0  0
   -1.1377   -0.2835    5.7641 C   0  0  0  0  0  0  0  0  0  0  0  0
    0.0643    1.4908    8.7493 N   0  0  0  0  0  0  0  0  0  0  0  0
   -0.0061   -0.3442   -2.5657 C   0  0  0  0  0  0  0  0  0  0  0  0
    1.0042    1.8801    0.0026 H   0  0  0  0  0  0  0  0  0  0  0  0
   -0.5455    1.8639   -0.8728 H   0  0  0  0  0  0  0  0  0  0  0  0
   -0.5286    1.8543    0.9071 H   0  0  0  0  0  0  0  0  0  0  0  0
    2.1922   -0.5021    5.2601 H   0  0  0  0  0  0  0  0  0  0  0  0
    2.2006    0.7433    7.3827 H   0  0  0  0  0  0  0  0  0  0  0  0
   -2.0753    0.6653    7.4338 H   0  0  0  0  0  0  0  0  0  0  0  0
   -2.0724   -0.5708    5.3057 H   0  0  0  0  0  0  0  0  0  0  0  0
    0.9047    1.7513    9.1578 H   0  0  0  0  0  0  0  0  0  0  0  0
   -0.7750    1.7209    9.1777 H   0  0  0  0  0  0  0  0  0  0  0  0
    1.0181   -0.2145   -2.9156 H   0  0  0  0  0  0  0  0  0  0  0  0
   -0.5125   -1.0809   -3.1894 H   0  0  0  0  0  0  0  0  0  0  0  0
   -0.5340    0.6075   -2.6261 H   0  0  0  0  0  0  0  0  0  0  0  0
  1  2  1  0  0  0  0
  1 19  1  0  0  0  0
  1 20  1  0  0  0  0
  1 21  1  0  0  0  0
  2  6  2  0  0  0  0
  2  3  1  0  0  0  0
  3  4  2  0  0  0  0
  3 18  1  0  0  0  0
  4  5  1  0  0  0  0
  5  6  1  0  0  0  0
  6  7  1  0  0  0  0
  7  8  1  0  0  0  0
  8  9  2  0  0  0  0
  8 10  2  0  0  0  0
  8 11  1  0  0  0  0
 11 16  2  0  0  0  0
 11 12  1  0  0  0  0
 12 13  2  0  0  0  0
 12 22  1  0  0  0  0
 13 14  1  0  0  0  0
 13 23  1  0  0  0  0
 14 15  2  0  0  0  0
 14 17  1  0  0  0  0
 15 16  1  0  0  0  0
 15 24  1  0  0  0  0
 16 25  1  0  0  0  0
 17 26  1  0  0  0  0
 17 27  1  0  0  0  0
 18 28  1  0  0  0  0
 18 29  1  0  0  0  0
 18 30  1  0  0  0  0
M  END
$$$$
