ZINC03786466
 OpenBabel08292219463D

 49 52  0  0  1  0  0  0  0  0999 V2000
   -0.0187    1.5258    0.0104 C   0  0  0  0  0  0  0  0  0  0  0  0
    0.0021   -0.0041    0.0020 C   0  0  0  0  0  0  0  0  0  0  0  0
    0.7421   -0.5109    1.2415 C   0  0  0  0  0  0  0  0  0  0  0  0
    0.7620   -1.9797    1.2335 N   0  3  2  0  0  0  0  0  0  0  0  0
   -0.6101   -2.4861    1.3521 C   0  0  0  0  0  0  0  0  0  0  0  0
   -0.6004   -4.0136    1.2571 C   0  0  1  0  0  0  0  0  0  0  0  0
   -0.1781   -4.3164    0.2989 H   0  0  0  0  0  0  0  0  0  0  0  0
    0.2521   -4.5820    2.3946 C   0  0  0  0  0  0  0  0  0  0  0  0
    1.6621   -3.9884    2.3134 C   0  0  1  0  0  0  0  0  0  0  0  0
    2.1261   -4.2935    1.3755 H   0  0  0  0  0  0  0  0  0  0  0  0
    1.5740   -2.4625    2.3580 C   0  0  1  0  0  0  0  0  0  0  0  0
    1.0792   -2.1743    3.2855 H   0  0  0  0  0  0  0  0  0  0  0  0
    2.9415   -1.7644    2.3169 C   0  0  0  0  0  0  0  0  0  0  0  0
    3.7806   -2.3188    3.4398 C   0  0  0  0  0  0  0  0  0  0  0  0
    4.7972   -1.8861    4.1694 C   0  0  0  0  0  0  0  0  0  0  0  0
    5.1731   -2.8522    5.0907 N   0  0  0  0  0  0  0  0  0  0  0  0
    5.8954   -2.7557    5.7308 H   0  0  0  0  0  0  0  0  0  0  0  0
    4.3837   -3.9557    4.9695 C   0  0  0  0  0  0  0  0  0  0  0  0
    3.4898   -3.6653    3.9323 C   0  0  0  0  0  0  0  0  0  0  0  0
    2.4854   -4.4951    3.4586 C   0  0  0  0  0  0  0  0  0  0  0  0
    2.3923   -5.6916    4.0965 C   0  0  0  0  0  0  0  0  0  0  0  0
    3.2547   -5.9991    5.1479 C   0  0  0  0  0  0  0  0  0  0  0  0
    4.2659   -5.2011    5.5842 C   0  0  0  0  0  0  0  0  0  0  0  0
   -2.0313   -4.5424    1.3751 C   0  0  0  0  0  0  0  0  0  0  0  0
   -2.0359   -6.3376    1.1149 S   0  0  0  0  0  0  0  0  0  0  0  0
   -3.7814   -6.8013    1.2853 C   0  0  0  0  0  0  0  0  0  0  0  0
    1.0039    1.9031    0.0027 H   0  0  0  0  0  0  0  0  0  0  0  0
   -0.5459    1.8868   -0.8726 H   0  0  0  0  0  0  0  0  0  0  0  0
   -0.5289    1.8773    0.9072 H   0  0  0  0  0  0  0  0  0  0  0  0
   -1.0205   -0.3814    0.0098 H   0  0  0  0  0  0  0  0  0  0  0  0
    0.5123   -0.3556   -0.8948 H   0  0  0  0  0  0  0  0  0  0  0  0
    1.7647   -0.1336    1.2338 H   0  0  0  0  0  0  0  0  0  0  0  0
    0.2319   -0.1594    2.1383 H   0  0  0  0  0  0  0  0  0  0  0  0
   -1.0268   -2.1845    2.3131 H   0  0  0  0  0  0  0  0  0  0  0  0
   -1.2196   -2.0759    0.5469 H   0  0  0  0  0  0  0  0  0  0  0  0
   -0.1981   -4.3211    3.3524 H   0  0  0  0  0  0  0  0  0  0  0  0
    0.3078   -5.6666    2.3010 H   0  0  0  0  0  0  0  0  0  0  0  0
    3.4275   -1.9619    1.3614 H   0  0  0  0  0  0  0  0  0  0  0  0
    2.8112   -0.6904    2.4498 H   0  0  0  0  0  0  0  0  0  0  0  0
    5.2667   -0.9194    4.0622 H   0  0  0  0  0  0  0  0  0  0  0  0
    1.6457   -6.4082    3.7873 H   0  0  0  0  0  0  0  0  0  0  0  0
    3.1443   -6.9607    5.6271 H   0  0  0  0  0  0  0  0  0  0  0  0
    4.9178   -5.4969    6.3928 H   0  0  0  0  0  0  0  0  0  0  0  0
   -2.4207   -4.3182    2.3682 H   0  0  0  0  0  0  0  0  0  0  0  0
   -2.6585   -4.0646    0.6225 H   0  0  0  0  0  0  0  0  0  0  0  0
   -4.3718   -6.2760    0.5346 H   0  0  0  0  0  0  0  0  0  0  0  0
   -3.8871   -7.8768    1.1435 H   0  0  0  0  0  0  0  0  0  0  0  0
   -4.1340   -6.5296    2.2803 H   0  0  0  0  0  0  0  0  0  0  0  0
    1.1636   -2.3045    0.3667 H   0  0  0  0  0  0  0  0  0  0  0  0
  1  2  1  0  0  0  0
  1 27  1  0  0  0  0
  1 28  1  0  0  0  0
  1 29  1  0  0  0  0
  2  3  1  0  0  0  0
  2 30  1  0  0  0  0
  2 31  1  0  0  0  0
  3  4  1  0  0  0  0
  3 32  1  0  0  0  0
  3 33  1  0  0  0  0
  4 11  1  0  0  0  0
  4  5  1  0  0  0  0
  4 49  1  6  0  0  0
  5  6  1  0  0  0  0
  5 34  1  0  0  0  0
  5 35  1  0  0  0  0
  6  7  1  6  0  0  0
  6  8  1  0  0  0  0
  6 24  1  0  0  0  0
  8  9  1  0  0  0  0
  8 36  1  0  0  0  0
  8 37  1  0  0  0  0
  9 10  1  6  0  0  0
  9 20  1  0  0  0  0
  9 11  1  0  0  0  0
 11 12  1  1  0  0  0
 11 13  1  0  0  0  0
 13 14  1  0  0  0  0
 13 38  1  0  0  0  0
 13 39  1  0  0  0  0
 14 19  1  0  0  0  0
 14 15  2  0  0  0  0
 15 16  1  0  0  0  0
 15 40  1  0  0  0  0
 16 17  1  0  0  0  0
 16 18  1  0  0  0  0
 18 23  2  0  0  0  0
 18 19  1  0  0  0  0
 19 20  2  0  0  0  0
 20 21  1  0  0  0  0
 21 22  2  0  0  0  0
 21 41  1  0  0  0  0
 22 23  1  0  0  0  0
 22 42  1  0  0  0  0
 23 43  1  0  0  0  0
 24 25  1  0  0  0  0
 24 44  1  0  0  0  0
 24 45  1  0  0  0  0
 25 26  1  0  0  0  0
 26 46  1  0  0  0  0
 26 47  1  0  0  0  0
 26 48  1  0  0  0  0
M  CHG  1   4   1
M  END
$$$$
