ZINC00004227
 OpenBabel08292219463D

 47 49  0  0  1  0  0  0  0  0999 V2000
   -0.3864    1.2876   -1.8325 C   0  0  0  0  0  0  0  0  0  0  0  0
   -0.3157   -0.2095   -2.1403 C   0  0  0  0  0  0  0  0  0  0  0  0
    0.6186   -0.8571   -1.2097 N   0  3  0  0  0  0  0  0  0  0  0  0
    0.0897   -0.7660    0.1577 C   0  0  0  0  0  0  0  0  0  0  0  0
    1.1332   -1.2937    1.1443 C   0  0  0  0  0  0  0  0  0  0  0  0
    0.7782   -2.2697   -1.5800 C   0  0  1  0  0  0  0  0  0  0  0  0
    1.3799   -2.7771   -0.8260 H   0  0  0  0  0  0  0  0  0  0  0  0
   -0.5979   -2.9331   -1.6655 C   0  0  0  0  0  0  0  0  0  0  0  0
    1.4757   -2.3652   -2.9383 C   0  0  0  0  0  0  0  0  0  0  0  0
    2.7748   -1.6917   -2.8686 N   0  0  0  0  0  0  0  0  0  0  0  0
    2.8771   -0.3657   -3.3027 C   0  0  0  0  0  0  0  0  0  0  0  0
    2.1619    0.0653   -4.4091 C   0  0  0  0  0  0  0  0  0  0  0  0
    2.2696    1.3782   -4.8336 C   0  0  0  0  0  0  0  0  0  0  0  0
    3.0873    2.2665   -4.1616 C   0  0  0  0  0  0  0  0  0  0  0  0
    3.8065    1.8466   -3.0545 C   0  0  0  0  0  0  0  0  0  0  0  0
    3.7022    0.5369   -2.6267 C   0  0  0  0  0  0  0  0  0  0  0  0
    4.6067   -0.0283   -1.2193 S   0  0  0  0  0  0  0  0  0  0  0  0
    4.8280   -1.7433   -1.5774 C   0  0  0  0  0  0  0  0  0  0  0  0
    3.8768   -2.3910   -2.3646 C   0  0  0  0  0  0  0  0  0  0  0  0
    4.0390   -3.7383   -2.6468 C   0  0  0  0  0  0  0  0  0  0  0  0
    5.1328   -4.4229   -2.1464 C   0  0  0  0  0  0  0  0  0  0  0  0
    6.0682   -3.7723   -1.3648 C   0  0  0  0  0  0  0  0  0  0  0  0
    5.9194   -2.4329   -1.0851 C   0  0  0  0  0  0  0  0  0  0  0  0
   -0.7338    1.4322   -0.8095 H   0  0  0  0  0  0  0  0  0  0  0  0
    0.6037    1.7290   -1.9459 H   0  0  0  0  0  0  0  0  0  0  0  0
   -1.0796    1.7680   -2.5230 H   0  0  0  0  0  0  0  0  0  0  0  0
   -1.3058   -0.6509   -2.0269 H   0  0  0  0  0  0  0  0  0  0  0  0
    0.0317   -0.3541   -3.1633 H   0  0  0  0  0  0  0  0  0  0  0  0
   -0.1374    0.2743    0.3909 H   0  0  0  0  0  0  0  0  0  0  0  0
   -0.8191   -1.3627    0.2363 H   0  0  0  0  0  0  0  0  0  0  0  0
    0.7229   -1.2709    2.1539 H   0  0  0  0  0  0  0  0  0  0  0  0
    1.3957   -2.3186    0.8819 H   0  0  0  0  0  0  0  0  0  0  0  0
    2.0244   -0.6677    1.1001 H   0  0  0  0  0  0  0  0  0  0  0  0
   -1.1997   -2.4256   -2.4194 H   0  0  0  0  0  0  0  0  0  0  0  0
   -0.4795   -3.9812   -1.9402 H   0  0  0  0  0  0  0  0  0  0  0  0
   -1.0948   -2.8650   -0.6977 H   0  0  0  0  0  0  0  0  0  0  0  0
    1.6234   -3.4135   -3.1980 H   0  0  0  0  0  0  0  0  0  0  0  0
    0.8584   -1.8861   -3.6983 H   0  0  0  0  0  0  0  0  0  0  0  0
    1.5211   -0.6232   -4.9398 H   0  0  0  0  0  0  0  0  0  0  0  0
    1.7110    1.7105   -5.6961 H   0  0  0  0  0  0  0  0  0  0  0  0
    3.1660    3.2891   -4.5000 H   0  0  0  0  0  0  0  0  0  0  0  0
    4.4462    2.5397   -2.5284 H   0  0  0  0  0  0  0  0  0  0  0  0
    3.3119   -4.2538   -3.2567 H   0  0  0  0  0  0  0  0  0  0  0  0
    5.2558   -5.4727   -2.3680 H   0  0  0  0  0  0  0  0  0  0  0  0
    6.9190   -4.3140   -0.9786 H   0  0  0  0  0  0  0  0  0  0  0  0
    6.6510   -1.9255   -0.4738 H   0  0  0  0  0  0  0  0  0  0  0  0
    1.5139   -0.3941   -1.2556 H   0  0  0  0  0  0  0  0  0  0  0  0
  1  2  1  0  0  0  0
  1 24  1  0  0  0  0
  1 25  1  0  0  0  0
  1 26  1  0  0  0  0
  2  3  1  0  0  0  0
  2 27  1  0  0  0  0
  2 28  1  0  0  0  0
  3  4  1  0  0  0  0
  3  6  1  0  0  0  0
  3 47  1  0  0  0  0
  4  5  1  0  0  0  0
  4 29  1  0  0  0  0
  4 30  1  0  0  0  0
  5 31  1  0  0  0  0
  5 32  1  0  0  0  0
  5 33  1  0  0  0  0
  6  7  1  1  0  0  0
  6  8  1  0  0  0  0
  6  9  1  0  0  0  0
  8 34  1  0  0  0  0
  8 35  1  0  0  0  0
  8 36  1  0  0  0  0
  9 10  1  0  0  0  0
  9 37  1  0  0  0  0
  9 38  1  0  0  0  0
 10 19  1  0  0  0  0
 10 11  1  0  0  0  0
 11 16  2  0  0  0  0
 11 12  1  0  0  0  0
 12 13  2  0  0  0  0
 12 39  1  0  0  0  0
 13 14  1  0  0  0  0
 13 40  1  0  0  0  0
 14 15  2  0  0  0  0
 14 41  1  0  0  0  0
 15 16  1  0  0  0  0
 15 42  1  0  0  0  0
 16 17  1  0  0  0  0
 17 18  1  0  0  0  0
 18 23  2  0  0  0  0
 18 19  1  0  0  0  0
 19 20  2  0  0  0  0
 20 21  1  0  0  0  0
 20 43  1  0  0  0  0
 21 22  2  0  0  0  0
 21 44  1  0  0  0  0
 22 23  1  0  0  0  0
 22 45  1  0  0  0  0
 23 46  1  0  0  0  0
M  CHG  1   3   1
M  END
$$$$
