ZINC22448983
 OpenBabel08292219463D

 66 69  0  0  0  0  0  0  0  0999 V2000
  -10.0137   -6.5102   -1.8158 C   0  0  0  0  0  0  0  0  0  0  0  0
   -8.6540   -6.0169   -1.5593 N   0  3  0  0  0  0  0  0  0  0  0  0
   -7.7903   -6.2205   -2.7307 C   0  0  0  0  0  0  0  0  0  0  0  0
   -6.3670   -5.7678   -2.3965 C   0  0  0  0  0  0  0  0  0  0  0  0
   -6.3862   -4.3530   -1.9994 N   0  0  0  0  0  0  0  0  0  0  0  0
   -7.2499   -4.1494   -0.8281 C   0  0  0  0  0  0  0  0  0  0  0  0
   -8.6733   -4.6021   -1.1623 C   0  0  0  0  0  0  0  0  0  0  0  0
   -5.0265   -3.8597   -1.7430 C   0  0  0  0  0  0  0  0  0  0  0  0
   -5.0583   -2.3389   -1.5783 C   0  0  0  0  0  0  0  0  0  0  0  0
   -3.6421   -1.8251   -1.3112 C   0  0  0  0  0  0  0  0  0  0  0  0
   -3.6719   -0.4047   -1.1574 O   0  0  0  0  0  0  0  0  0  0  0  0
   -2.4875    0.2141   -0.9129 C   0  0  0  0  0  0  0  0  0  0  0  0
   -1.3345   -0.5326   -0.8253 C   0  0  0  0  0  0  0  0  0  0  0  0
   -0.1099    0.1042   -0.5728 C   0  0  0  0  0  0  0  0  0  0  0  0
   -0.0839    1.5107   -0.4123 C   0  0  0  0  0  0  0  0  0  0  0  0
   -1.2740    2.2476   -0.5007 C   0  0  0  0  0  0  0  0  0  0  0  0
   -2.4527    1.6062   -0.7522 C   0  0  0  0  0  0  0  0  0  0  0  0
   -3.6043    2.3237   -0.8425 O   0  0  0  0  0  0  0  0  0  0  0  0
   -3.5023    3.7385   -0.6693 C   0  0  0  0  0  0  0  0  0  0  0  0
    1.1518    2.1498   -0.1579 C   0  0  0  0  0  0  0  0  0  0  0  0
    2.2996    1.3468   -0.0768 C   0  0  0  0  0  0  0  0  0  0  0  0
    2.1804   -0.0418   -0.2488 C   0  0  0  0  0  0  0  0  0  0  0  0
    1.0238   -0.6069   -0.4836 N   0  0  0  0  0  0  0  0  0  0  0  0
    3.5791    1.9370    0.1785 C   0  0  0  0  0  0  0  0  0  0  0  0
    4.5940    2.4052    0.3811 N   0  0  0  0  0  0  0  0  0  0  0  0
    1.2264    3.5186    0.0048 N   0  0  0  0  0  0  0  0  0  0  0  0
    2.4372    4.1835   -0.2122 C   0  0  0  0  0  0  0  0  0  0  0  0
    3.1043    4.7773    0.8508 C   0  0  0  0  0  0  0  0  0  0  0  0
    4.3041    5.4350    0.6325 C   0  0  0  0  0  0  0  0  0  0  0  0
    4.8372    5.4992   -0.6482 C   0  0  0  0  0  0  0  0  0  0  0  0
    4.1721    4.9075   -1.7063 C   0  0  0  0  0  0  0  0  0  0  0  0
    2.9774    4.2459   -1.4914 C   0  0  0  0  0  0  0  0  0  0  0  0
    2.1481    3.4984   -2.8208 Cl  0  0  0  0  0  0  0  0  0  0  0  0
    6.3403    6.3238   -0.9213 Cl  0  0  0  0  0  0  0  0  0  0  0  0
    4.9590    6.0176    1.6716 O   0  0  0  0  0  0  0  0  0  0  0  0
    4.4145    5.8149    2.9772 C   0  0  0  0  0  0  0  0  0  0  0  0
   -9.9701   -7.5691   -2.1104 H   0  0  0  0  0  0  0  0  0  0  0  0
  -10.4701   -5.9227   -2.6260 H   0  0  0  0  0  0  0  0  0  0  0  0
  -10.6190   -6.4082   -0.9030 H   0  0  0  0  0  0  0  0  0  0  0  0
   -7.7832   -7.2870   -3.0001 H   0  0  0  0  0  0  0  0  0  0  0  0
   -8.1745   -5.6313   -3.5764 H   0  0  0  0  0  0  0  0  0  0  0  0
   -5.9734   -6.3765   -1.5691 H   0  0  0  0  0  0  0  0  0  0  0  0
   -5.7253   -5.8927   -3.2811 H   0  0  0  0  0  0  0  0  0  0  0  0
   -6.8657   -4.7386    0.0176 H   0  0  0  0  0  0  0  0  0  0  0  0
   -7.2570   -3.0829   -0.5587 H   0  0  0  0  0  0  0  0  0  0  0  0
   -9.0676   -3.9944   -1.9901 H   0  0  0  0  0  0  0  0  0  0  0  0
   -9.3157   -4.4781   -0.2780 H   0  0  0  0  0  0  0  0  0  0  0  0
   -4.6368   -4.3201   -0.8231 H   0  0  0  0  0  0  0  0  0  0  0  0
   -4.3751   -4.1233   -2.5893 H   0  0  0  0  0  0  0  0  0  0  0  0
   -5.4480   -1.8786   -2.4982 H   0  0  0  0  0  0  0  0  0  0  0  0
   -5.7097   -2.0753   -0.7320 H   0  0  0  0  0  0  0  0  0  0  0  0
   -3.2525   -2.2855   -0.3913 H   0  0  0  0  0  0  0  0  0  0  0  0
   -2.9907   -2.0887   -2.1575 H   0  0  0  0  0  0  0  0  0  0  0  0
   -1.3723   -1.6047   -0.9499 H   0  0  0  0  0  0  0  0  0  0  0  0
   -1.2569    3.3205   -0.3782 H   0  0  0  0  0  0  0  0  0  0  0  0
   -4.4995    4.1926   -0.7662 H   0  0  0  0  0  0  0  0  0  0  0  0
   -2.8337    4.1546   -1.4373 H   0  0  0  0  0  0  0  0  0  0  0  0
   -3.0952    3.9573    0.3289 H   0  0  0  0  0  0  0  0  0  0  0  0
    3.0649   -0.6582   -0.1860 H   0  0  0  0  0  0  0  0  0  0  0  0
    0.3333    4.0863    0.3052 H   0  0  0  0  0  0  0  0  0  0  0  0
    2.6888    4.7264    1.8464 H   0  0  0  0  0  0  0  0  0  0  0  0
    4.5888    4.9585   -2.7013 H   0  0  0  0  0  0  0  0  0  0  0  0
    5.0369    6.3367    3.7191 H   0  0  0  0  0  0  0  0  0  0  0  0
    4.3977    4.7388    3.2044 H   0  0  0  0  0  0  0  0  0  0  0  0
    3.3898    6.2132    3.0130 H   0  0  0  0  0  0  0  0  0  0  0  0
   -8.2365   -6.5985   -0.7241 H   0  0  0  0  0  0  0  0  0  0  0  0
  1  2  1  0  0  0  0
  1 37  1  0  0  0  0
  1 38  1  0  0  0  0
  1 39  1  0  0  0  0
  2  7  1  0  0  0  0
  2  3  1  0  0  0  0
  2 66  1  0  0  0  0
  3  4  1  0  0  0  0
  3 40  1  0  0  0  0
  3 41  1  0  0  0  0
  4  5  1  0  0  0  0
  4 42  1  0  0  0  0
  4 43  1  0  0  0  0
  5  6  1  0  0  0  0
  5  8  1  0  0  0  0
  6  7  1  0  0  0  0
  6 44  1  0  0  0  0
  6 45  1  0  0  0  0
  7 46  1  0  0  0  0
  7 47  1  0  0  0  0
  8  9  1  0  0  0  0
  8 48  1  0  0  0  0
  8 49  1  0  0  0  0
  9 10  1  0  0  0  0
  9 50  1  0  0  0  0
  9 51  1  0  0  0  0
 10 11  1  0  0  0  0
 10 52  1  0  0  0  0
 10 53  1  0  0  0  0
 11 12  1  0  0  0  0
 12 17  2  0  0  0  0
 12 13  1  0  0  0  0
 13 14  2  0  0  0  0
 13 54  1  0  0  0  0
 14 23  1  0  0  0  0
 14 15  1  0  0  0  0
 15 16  2  0  0  0  0
 15 20  1  0  0  0  0
 16 17  1  0  0  0  0
 16 55  1  0  0  0  0
 17 18  1  0  0  0  0
 18 19  1  0  0  0  0
 19 56  1  0  0  0  0
 19 57  1  0  0  0  0
 19 58  1  0  0  0  0
 20 21  2  0  0  0  0
 20 26  1  0  0  0  0
 21 22  1  0  0  0  0
 21 24  1  0  0  0  0
 22 23  2  0  0  0  0
 22 59  1  0  0  0  0
 24 25  3  0  0  0  0
 26 27  1  0  0  0  0
 26 60  1  0  0  0  0
 27 32  2  0  0  0  0
 27 28  1  0  0  0  0
 28 29  2  0  0  0  0
 28 61  1  0  0  0  0
 29 30  1  0  0  0  0
 29 35  1  0  0  0  0
 30 31  2  0  0  0  0
 30 34  1  0  0  0  0
 31 32  1  0  0  0  0
 31 62  1  0  0  0  0
 32 33  1  0  0  0  0
 35 36  1  0  0  0  0
 36 63  1  0  0  0  0
 36 64  1  0  0  0  0
 36 65  1  0  0  0  0
M  CHG  1   2   1
M  END
$$$$
