ZINC00009689
 OpenBabel08292219463D

 49 50  0  0  1  0  0  0  0  0999 V2000
   -0.0187    1.5258    0.0104 C   0  0  0  0  0  0  0  0  0  0  0  0
    0.0021   -0.0041    0.0020 C   0  0  0  0  0  0  0  0  0  0  0  0
    0.7421   -0.5109    1.2415 C   0  0  0  0  0  0  0  0  0  0  0  0
   -1.4333   -0.5336    0.0129 C   0  0  1  0  0  0  0  0  0  0  0  0
   -2.1733   -0.0268   -1.2266 C   0  0  0  0  0  0  0  0  0  0  0  0
   -3.6087   -0.5564   -1.2158 C   0  0  0  0  0  0  0  0  0  0  0  0
   -3.5879   -2.0862   -1.2242 C   0  0  1  0  0  0  0  0  0  0  0  0
   -2.8479   -2.5931    0.0153 C   0  0  0  0  0  0  0  0  0  0  0  0
   -1.4126   -2.0635    0.0045 C   0  0  0  0  0  0  0  0  0  0  0  0
   -5.0017   -2.6079   -1.2135 C   0  0  0  0  0  0  0  0  0  0  0  0
   -5.9341   -1.8324   -1.2004 O   0  0  0  0  0  0  0  0  0  0  0  0
   -5.2300   -3.9361   -1.2185 N   0  0  0  0  0  0  0  0  0  0  0  0
   -6.6044   -4.4432   -1.2081 C   0  0  2  0  0  0  0  0  0  0  0  0
   -7.2310   -3.7824   -0.6090 H   0  0  0  0  0  0  0  0  0  0  0  0
   -6.6246   -5.8495   -0.6058 C   0  0  0  0  0  0  0  0  0  0  0  0
   -6.2137   -5.7817    0.8426 C   0  0  0  0  0  0  0  0  0  0  0  0
   -4.8805   -5.8973    1.1889 C   0  0  0  0  0  0  0  0  0  0  0  0
   -4.5036   -5.8350    2.5174 C   0  0  0  0  0  0  0  0  0  0  0  0
   -5.4599   -5.6567    3.4996 C   0  0  0  0  0  0  0  0  0  0  0  0
   -6.7931   -5.5402    3.1531 C   0  0  0  0  0  0  0  0  0  0  0  0
   -7.1695   -5.5981    1.8243 C   0  0  0  0  0  0  0  0  0  0  0  0
   -7.1321   -4.4933   -2.6188 C   0  0  0  0  0  0  0  0  0  0  0  0
   -6.3764   -4.3153   -3.5589 O   0  0  0  0  0  0  0  0  0  0  0  0
   -8.3145   -4.7118   -2.8200 O   0  0  0  0  0  1  0  0  0  0  0  0
    1.0039    1.9031    0.0027 H   0  0  0  0  0  0  0  0  0  0  0  0
   -0.5459    1.8868   -0.8726 H   0  0  0  0  0  0  0  0  0  0  0  0
   -0.5289    1.8773    0.9072 H   0  0  0  0  0  0  0  0  0  0  0  0
    0.5123   -0.3556   -0.8948 H   0  0  0  0  0  0  0  0  0  0  0  0
    0.7568   -1.6008    1.2356 H   0  0  0  0  0  0  0  0  0  0  0  0
    1.7647   -0.1336    1.2338 H   0  0  0  0  0  0  0  0  0  0  0  0
    0.2319   -0.1594    2.1383 H   0  0  0  0  0  0  0  0  0  0  0  0
   -1.9435   -0.1821    0.9097 H   0  0  0  0  0  0  0  0  0  0  0  0
   -2.1881    1.0631   -1.2207 H   0  0  0  0  0  0  0  0  0  0  0  0
   -1.6631   -0.3783   -2.1234 H   0  0  0  0  0  0  0  0  0  0  0  0
   -4.1189   -0.2049   -0.3190 H   0  0  0  0  0  0  0  0  0  0  0  0
   -4.1359   -0.1953   -2.0988 H   0  0  0  0  0  0  0  0  0  0  0  0
   -3.0777   -2.4378   -2.1210 H   0  0  0  0  0  0  0  0  0  0  0  0
   -3.3581   -2.2415    0.9121 H   0  0  0  0  0  0  0  0  0  0  0  0
   -2.8332   -3.6829    0.0093 H   0  0  0  0  0  0  0  0  0  0  0  0
   -0.9024   -2.4150   -0.8923 H   0  0  0  0  0  0  0  0  0  0  0  0
   -0.8854   -2.4246    0.8875 H   0  0  0  0  0  0  0  0  0  0  0  0
   -4.4843   -4.5564   -1.2289 H   0  0  0  0  0  0  0  0  0  0  0  0
   -7.6310   -6.2617   -0.6790 H   0  0  0  0  0  0  0  0  0  0  0  0
   -5.9298   -6.4883   -1.1510 H   0  0  0  0  0  0  0  0  0  0  0  0
   -4.1334   -6.0366    0.4216 H   0  0  0  0  0  0  0  0  0  0  0  0
   -3.4620   -5.9260    2.7881 H   0  0  0  0  0  0  0  0  0  0  0  0
   -5.1655   -5.6087    4.5376 H   0  0  0  0  0  0  0  0  0  0  0  0
   -7.5402   -5.4012    3.9205 H   0  0  0  0  0  0  0  0  0  0  0  0
   -8.2107   -5.5034    1.5533 H   0  0  0  0  0  0  0  0  0  0  0  0
  1  2  1  0  0  0  0
  1 25  1  0  0  0  0
  1 26  1  0  0  0  0
  1 27  1  0  0  0  0
  2  3  1  0  0  0  0
  2  4  1  0  0  0  0
  2 28  1  0  0  0  0
  3 29  1  0  0  0  0
  3 30  1  0  0  0  0
  3 31  1  0  0  0  0
  4  9  1  0  0  0  0
  4  5  1  0  0  0  0
  4 32  1  1  0  0  0
  5  6  1  0  0  0  0
  5 33  1  0  0  0  0
  5 34  1  0  0  0  0
  6  7  1  0  0  0  0
  6 35  1  0  0  0  0
  6 36  1  0  0  0  0
  7  8  1  0  0  0  0
  7 10  1  0  0  0  0
  7 37  1  6  0  0  0
  8  9  1  0  0  0  0
  8 38  1  0  0  0  0
  8 39  1  0  0  0  0
  9 40  1  0  0  0  0
  9 41  1  0  0  0  0
 10 11  2  0  0  0  0
 10 12  1  0  0  0  0
 12 13  1  0  0  0  0
 12 42  1  0  0  0  0
 13 14  1  1  0  0  0
 13 15  1  0  0  0  0
 13 22  1  0  0  0  0
 15 16  1  0  0  0  0
 15 43  1  0  0  0  0
 15 44  1  0  0  0  0
 16 21  2  0  0  0  0
 16 17  1  0  0  0  0
 17 18  2  0  0  0  0
 17 45  1  0  0  0  0
 18 19  1  0  0  0  0
 18 46  1  0  0  0  0
 19 20  2  0  0  0  0
 19 47  1  0  0  0  0
 20 21  1  0  0  0  0
 20 48  1  0  0  0  0
 21 49  1  0  0  0  0
 22 23  2  0  0  0  0
 22 24  1  0  0  0  0
M  END
$$$$
