ZINC30691760
 OpenBabel08292219463D

 53 54  0  0  1  0  0  0  0  0999 V2000
   -5.2750    9.8345    3.2746 C   0  0  0  0  0  0  0  0  0  0  0  0
   -5.2728    8.3806    2.7980 C   0  0  0  0  0  0  0  0  0  0  0  0
   -5.7063    7.4669    3.9460 C   0  0  0  0  0  0  0  0  0  0  0  0
   -5.7041    6.0349    3.4766 C   0  0  0  0  0  0  0  0  0  0  0  0
   -5.3881    5.7721    2.3404 O   0  0  0  0  0  0  0  0  0  0  0  0
   -6.0531    5.0513    4.3207 O   0  0  0  0  0  0  0  0  0  0  0  0
   -6.0280    3.6961    3.8002 C   0  0  0  0  0  0  0  0  0  0  0  0
   -4.6740    3.2521    3.6925 O   0  0  0  0  0  0  0  0  0  0  0  0
   -4.0455    2.9188    4.8393 C   0  0  0  0  0  0  0  0  0  0  0  0
   -4.6328    3.0034    5.9017 O   0  0  0  0  0  0  0  0  0  0  0  0
   -2.7045    2.4713    4.8063 C   0  0  0  0  0  0  0  0  0  0  0  0
   -2.1283    2.0364    5.9403 C   0  0  0  0  0  0  0  0  0  0  0  0
   -0.8353    1.5891    5.9425 N   0  0  0  0  0  0  0  0  0  0  0  0
   -0.2282    1.2313    4.7696 C   0  0  0  0  0  0  0  0  0  0  0  0
   -0.7219    1.6374    3.5870 C   0  0  0  0  0  0  0  0  0  0  0  0
   -1.9543    2.4926    3.5048 C   0  0  2  0  0  0  0  0  0  0  0  0
   -2.6076    2.0919    2.7157 H   0  0  0  0  0  0  0  0  0  0  0  0
   -1.5542    3.9103    3.1868 C   0  0  0  0  0  0  0  0  0  0  0  0
   -0.7199    4.6021    4.0450 C   0  0  0  0  0  0  0  0  0  0  0  0
   -0.3521    5.9023    3.7540 C   0  0  0  0  0  0  0  0  0  0  0  0
   -0.8189    6.5128    2.6048 C   0  0  0  0  0  0  0  0  0  0  0  0
   -1.6544    5.8225    1.7456 C   0  0  0  0  0  0  0  0  0  0  0  0
   -2.0172    4.5174    2.0336 C   0  0  0  0  0  0  0  0  0  0  0  0
   -3.0588    3.6465    0.9518 Cl  0  0  0  0  0  0  0  0  0  0  0  0
   -2.2418    6.5890    0.3030 Cl  0  0  0  0  0  0  0  0  0  0  0  0
   -0.0704    1.2463    2.3944 C   0  0  0  0  0  0  0  0  0  0  0  0
   -0.5145    0.3275    1.7316 O   0  0  0  0  0  0  0  0  0  0  0  0
    1.0439    1.8921    1.9913 O   0  0  0  0  0  0  0  0  0  0  0  0
    1.6500    1.4443    0.7771 C   0  0  0  0  0  0  0  0  0  0  0  0
    1.0125    0.3766    4.8042 C   0  0  0  0  0  0  0  0  0  0  0  0
   -2.9164    2.0411    7.2248 C   0  0  0  0  0  0  0  0  0  0  0  0
   -4.9633   10.4914    2.4492 H   0  0  0  0  0  0  0  0  0  0  0  0
   -4.5751    9.9456    4.1159 H   0  0  0  0  0  0  0  0  0  0  0  0
   -6.2881   10.1117    3.6013 H   0  0  0  0  0  0  0  0  0  0  0  0
   -5.9727    8.2695    1.9567 H   0  0  0  0  0  0  0  0  0  0  0  0
   -4.2597    8.1034    2.4713 H   0  0  0  0  0  0  0  0  0  0  0  0
   -5.0065    7.5780    4.7874 H   0  0  0  0  0  0  0  0  0  0  0  0
   -6.7194    7.7441    4.2727 H   0  0  0  0  0  0  0  0  0  0  0  0
   -6.5787    3.0313    4.4819 H   0  0  0  0  0  0  0  0  0  0  0  0
   -6.5006    3.6759    2.8071 H   0  0  0  0  0  0  0  0  0  0  0  0
   -0.2802    1.5161    6.8893 H   0  0  0  0  0  0  0  0  0  0  0  0
   -0.3549    4.1262    4.9432 H   0  0  0  0  0  0  0  0  0  0  0  0
    0.3001    6.4417    4.4249 H   0  0  0  0  0  0  0  0  0  0  0  0
   -0.5314    7.5288    2.3781 H   0  0  0  0  0  0  0  0  0  0  0  0
    2.5425    2.0520    0.5669 H   0  0  0  0  0  0  0  0  0  0  0  0
    0.9328    1.5476   -0.0505 H   0  0  0  0  0  0  0  0  0  0  0  0
    1.9412    0.3886    0.8803 H   0  0  0  0  0  0  0  0  0  0  0  0
    1.3586    0.1909    3.7767 H   0  0  0  0  0  0  0  0  0  0  0  0
    0.7839   -0.5819    5.2930 H   0  0  0  0  0  0  0  0  0  0  0  0
    1.8006    0.8970    5.3681 H   0  0  0  0  0  0  0  0  0  0  0  0
   -2.2889    1.6545    8.0414 H   0  0  0  0  0  0  0  0  0  0  0  0
   -3.8053    1.4031    7.1119 H   0  0  0  0  0  0  0  0  0  0  0  0
   -3.2302    3.0691    7.4586 H   0  0  0  0  0  0  0  0  0  0  0  0
  1  2  1  0  0  0  0
  1 32  1  0  0  0  0
  1 33  1  0  0  0  0
  1 34  1  0  0  0  0
  2  3  1  0  0  0  0
  2 35  1  0  0  0  0
  2 36  1  0  0  0  0
  3  4  1  0  0  0  0
  3 37  1  0  0  0  0
  3 38  1  0  0  0  0
  4  5  2  0  0  0  0
  4  6  1  0  0  0  0
  6  7  1  0  0  0  0
  7  8  1  0  0  0  0
  7 39  1  0  0  0  0
  7 40  1  0  0  0  0
  8  9  1  0  0  0  0
  9 10  2  0  0  0  0
  9 11  1  0  0  0  0
 11 16  1  0  0  0  0
 11 12  2  0  0  0  0
 12 13  1  0  0  0  0
 12 31  1  0  0  0  0
 13 14  1  0  0  0  0
 13 41  1  0  0  0  0
 14 15  2  0  0  0  0
 14 30  1  0  0  0  0
 15 16  1  0  0  0  0
 15 26  1  0  0  0  0
 16 17  1  6  0  0  0
 16 18  1  0  0  0  0
 18 23  2  0  0  0  0
 18 19  1  0  0  0  0
 19 20  2  0  0  0  0
 19 42  1  0  0  0  0
 20 21  1  0  0  0  0
 20 43  1  0  0  0  0
 21 22  2  0  0  0  0
 21 44  1  0  0  0  0
 22 23  1  0  0  0  0
 22 25  1  0  0  0  0
 23 24  1  0  0  0  0
 26 27  2  0  0  0  0
 26 28  1  0  0  0  0
 28 29  1  0  0  0  0
 29 45  1  0  0  0  0
 29 46  1  0  0  0  0
 29 47  1  0  0  0  0
 30 48  1  0  0  0  0
 30 49  1  0  0  0  0
 30 50  1  0  0  0  0
 31 51  1  0  0  0  0
 31 52  1  0  0  0  0
 31 53  1  0  0  0  0
M  END
$$$$
