ZINC00020260
 OpenBabel08292219463D

 54 56  0  0  1  0  0  0  0  0999 V2000
   -0.9720    0.7151   -2.3261 C   0  0  0  0  0  0  0  0  0  0  0  0
   -0.7436    1.5828   -1.1680 N   0  0  0  0  0  0  0  0  0  0  0  0
   -0.0127    1.0858    0.0080 C   0  0  0  0  0  0  0  0  0  0  0  0
   -0.7524    1.5915    1.2560 C   0  0  0  0  0  0  0  0  0  0  0  0
   -0.7857    3.1212    1.2097 C   0  0  0  0  0  0  0  0  0  0  0  0
   -1.2062    2.8719   -1.1602 C   0  0  0  0  0  0  0  0  0  0  0  0
   -1.6937    3.4746   -2.4525 C   0  0  0  0  0  0  0  0  0  0  0  0
   -2.1347    4.8374   -2.2149 O   0  0  0  0  0  0  0  0  0  0  0  0
   -2.6018    5.5199   -3.2722 C   0  0  0  0  0  0  0  0  0  0  0  0
   -2.6408    4.9958   -4.3602 O   0  0  0  0  0  0  0  0  0  0  0  0
   -3.0775    6.9397   -3.1023 C   0  0  1  0  0  0  0  0  0  0  0  0
   -1.9023    7.8781   -3.1984 C   0  0  0  0  0  0  0  0  0  0  0  0
   -1.5253    8.3902   -4.4258 C   0  0  0  0  0  0  0  0  0  0  0  0
   -0.4502    9.2548   -4.5133 C   0  0  0  0  0  0  0  0  0  0  0  0
    0.2542    9.5991   -3.3748 C   0  0  0  0  0  0  0  0  0  0  0  0
   -0.1196    9.0829   -2.1482 C   0  0  0  0  0  0  0  0  0  0  0  0
   -1.1978    8.2224   -2.0599 C   0  0  0  0  0  0  0  0  0  0  0  0
   -4.0882    7.2739   -4.2012 C   0  0  0  0  0  0  0  0  0  0  0  0
   -4.5712    8.7154   -4.0286 C   0  0  0  0  0  0  0  0  0  0  0  0
   -5.5819    9.0496   -5.1276 C   0  0  0  0  0  0  0  0  0  0  0  0
   -6.7751    8.0968   -5.0300 C   0  0  0  0  0  0  0  0  0  0  0  0
   -6.2921    6.6553   -5.2025 C   0  0  0  0  0  0  0  0  0  0  0  0
   -5.2814    6.3211   -4.1036 C   0  0  0  0  0  0  0  0  0  0  0  0
   -3.6990    7.0840   -1.8236 O   0  0  0  0  0  0  0  0  0  0  0  0
   -1.9129    0.1797   -2.1991 H   0  0  0  0  0  0  0  0  0  0  0  0
   -1.0182    1.3213   -3.2308 H   0  0  0  0  0  0  0  0  0  0  0  0
   -0.1548   -0.0013   -2.4102 H   0  0  0  0  0  0  0  0  0  0  0  0
    0.0021   -0.0041    0.0020 H   0  0  0  0  0  0  0  0  0  0  0  0
    1.0072    1.4703    0.0003 H   0  0  0  0  0  0  0  0  0  0  0  0
   -1.7707    1.2029    1.2620 H   0  0  0  0  0  0  0  0  0  0  0  0
   -0.2277    1.2616    2.1527 H   0  0  0  0  0  0  0  0  0  0  0  0
    0.2157    3.5072    1.4001 H   0  0  0  0  0  0  0  0  0  0  0  0
   -1.4646    3.4897    1.9786 H   0  0  0  0  0  0  0  0  0  0  0  0
   -0.8829    3.4769   -3.1810 H   0  0  0  0  0  0  0  0  0  0  0  0
   -2.5260    2.8852   -2.8371 H   0  0  0  0  0  0  0  0  0  0  0  0
   -2.0729    8.1177   -5.3159 H   0  0  0  0  0  0  0  0  0  0  0  0
   -0.1580    9.6578   -5.4717 H   0  0  0  0  0  0  0  0  0  0  0  0
    1.0969   10.2712   -3.4438 H   0  0  0  0  0  0  0  0  0  0  0  0
    0.4311    9.3517   -1.2588 H   0  0  0  0  0  0  0  0  0  0  0  0
   -1.4896    7.8189   -1.1016 H   0  0  0  0  0  0  0  0  0  0  0  0
   -3.6142    7.1638   -5.1765 H   0  0  0  0  0  0  0  0  0  0  0  0
   -5.0452    8.8255   -3.0533 H   0  0  0  0  0  0  0  0  0  0  0  0
   -3.7212    9.3942   -4.0982 H   0  0  0  0  0  0  0  0  0  0  0  0
   -5.1079    8.9395   -6.1029 H   0  0  0  0  0  0  0  0  0  0  0  0
   -5.9260   10.0765   -5.0046 H   0  0  0  0  0  0  0  0  0  0  0  0
   -7.4951    8.3349   -5.8129 H   0  0  0  0  0  0  0  0  0  0  0  0
   -7.2491    8.2069   -4.0547 H   0  0  0  0  0  0  0  0  0  0  0  0
   -5.8181    6.5453   -6.1779 H   0  0  0  0  0  0  0  0  0  0  0  0
   -7.1421    5.9766   -5.1330 H   0  0  0  0  0  0  0  0  0  0  0  0
   -4.9373    5.2942   -4.2265 H   0  0  0  0  0  0  0  0  0  0  0  0
   -5.7554    6.4312   -3.1283 H   0  0  0  0  0  0  0  0  0  0  0  0
   -4.4649    6.5087   -1.6914 H   0  0  0  0  0  0  0  0  0  0  0  0
   -1.2754    3.6756   -0.1057 N   0  0  0  0  0  4  0  0  0  0  0  0
   -1.6452    4.6304   -0.1816 H   0  0  0  0  0  0  0  0  0  0  0  0
  1  2  1  0  0  0  0
  1 25  1  0  0  0  0
  1 26  1  0  0  0  0
  1 27  1  0  0  0  0
  2  6  1  0  0  0  0
  2  3  1  0  0  0  0
  3  4  1  0  0  0  0
  3 28  1  0  0  0  0
  3 29  1  0  0  0  0
  4  5  1  0  0  0  0
  4 30  1  0  0  0  0
  4 31  1  0  0  0  0
  5 32  1  0  0  0  0
  5 33  1  0  0  0  0
  5 53  1  0  0  0  0
  6  7  1  0  0  0  0
  6 53  2  0  0  0  0
  7  8  1  0  0  0  0
  7 34  1  0  0  0  0
  7 35  1  0  0  0  0
  8  9  1  0  0  0  0
  9 10  2  0  0  0  0
 11  9  1  6  0  0  0
 11 12  1  0  0  0  0
 11 18  1  0  0  0  0
 11 24  1  0  0  0  0
 12 17  2  0  0  0  0
 12 13  1  0  0  0  0
 13 14  2  0  0  0  0
 13 36  1  0  0  0  0
 14 15  1  0  0  0  0
 14 37  1  0  0  0  0
 15 16  2  0  0  0  0
 15 38  1  0  0  0  0
 16 17  1  0  0  0  0
 16 39  1  0  0  0  0
 17 40  1  0  0  0  0
 18 23  1  0  0  0  0
 18 19  1  0  0  0  0
 18 41  1  0  0  0  0
 19 20  1  0  0  0  0
 19 42  1  0  0  0  0
 19 43  1  0  0  0  0
 20 21  1  0  0  0  0
 20 44  1  0  0  0  0
 20 45  1  0  0  0  0
 21 22  1  0  0  0  0
 21 46  1  0  0  0  0
 21 47  1  0  0  0  0
 22 23  1  0  0  0  0
 22 48  1  0  0  0  0
 22 49  1  0  0  0  0
 23 50  1  0  0  0  0
 23 51  1  0  0  0  0
 24 52  1  0  0  0  0
 53 54  1  0  0  0  0
M  END
$$$$
