ZINC00967917
 OpenBabel08292219463D

 42 42  0  0  1  0  0  0  0  0999 V2000
   -0.0638    1.5723   -0.5203 C   0  0  0  0  0  0  0  0  0  0  0  0
   -0.0284    0.0431   -0.5544 C   0  0  0  0  0  0  0  0  0  0  0  0
    0.8896   -0.4707    0.5565 C   0  0  0  0  0  0  0  0  0  0  0  0
   -1.3849   -0.4828   -0.3511 N   0  3  0  0  0  0  0  0  0  0  0  0
   -1.3715   -1.9439   -0.5027 C   0  0  0  0  0  0  0  0  0  0  0  0
   -2.7843   -2.4916   -0.2909 C   0  0  1  0  0  0  0  0  0  0  0  0
   -3.4573   -2.0559   -1.0293 H   0  0  0  0  0  0  0  0  0  0  0  0
   -2.7703   -4.0134   -0.4488 C   0  0  0  0  0  0  0  0  0  0  0  0
   -4.1066   -4.5131   -0.3668 O   0  0  0  0  0  0  0  0  0  0  0  0
   -4.2715   -5.8572   -0.4885 C   0  0  0  0  0  0  0  0  0  0  0  0
   -3.1683   -6.6768   -0.6772 C   0  0  0  0  0  0  0  0  0  0  0  0
   -3.3351   -8.0420   -0.8009 C   0  0  0  0  0  0  0  0  0  0  0  0
   -4.6074   -8.5943   -0.7364 C   0  0  0  0  0  0  0  0  0  0  0  0
   -5.7111   -7.7734   -0.5476 C   0  0  0  0  0  0  0  0  0  0  0  0
   -5.5424   -6.4090   -0.4183 C   0  0  0  0  0  0  0  0  0  0  0  0
   -4.7774   -9.9793   -0.8624 N   0  0  0  0  0  0  0  0  0  0  0  0
   -3.8348  -10.8196   -0.3913 C   0  0  0  0  0  0  0  0  0  0  0  0
   -2.8864  -10.3825    0.2258 O   0  0  0  0  0  0  0  0  0  0  0  0
   -3.9590  -12.3021   -0.6313 C   0  0  0  0  0  0  0  0  0  0  0  0
   -3.2345   -2.1531    1.0224 O   0  0  0  0  0  0  0  0  0  0  0  0
    0.9427    1.9625   -0.6712 H   0  0  0  0  0  0  0  0  0  0  0  0
   -0.7178    1.9383   -1.3118 H   0  0  0  0  0  0  0  0  0  0  0  0
   -0.4416    1.9055    0.4463 H   0  0  0  0  0  0  0  0  0  0  0  0
    0.3494   -0.2901   -1.5211 H   0  0  0  0  0  0  0  0  0  0  0  0
    1.8961   -0.0805    0.4056 H   0  0  0  0  0  0  0  0  0  0  0  0
    0.5118   -0.1375    1.5231 H   0  0  0  0  0  0  0  0  0  0  0  0
    0.9148   -1.5601    0.5322 H   0  0  0  0  0  0  0  0  0  0  0  0
   -1.7028   -0.2438    0.5762 H   0  0  0  0  0  0  0  0  0  0  0  0
   -1.0280   -2.2021   -1.5044 H   0  0  0  0  0  0  0  0  0  0  0  0
   -0.6984   -2.3796    0.2357 H   0  0  0  0  0  0  0  0  0  0  0  0
   -2.3437   -4.2743   -1.4173 H   0  0  0  0  0  0  0  0  0  0  0  0
   -2.1677   -4.4555    0.3446 H   0  0  0  0  0  0  0  0  0  0  0  0
   -2.1788   -6.2471   -0.7277 H   0  0  0  0  0  0  0  0  0  0  0  0
   -2.4762   -8.6799   -0.9482 H   0  0  0  0  0  0  0  0  0  0  0  0
   -6.7011   -8.2023   -0.4977 H   0  0  0  0  0  0  0  0  0  0  0  0
   -6.4004   -5.7708   -0.2670 H   0  0  0  0  0  0  0  0  0  0  0  0
   -5.5735  -10.3335   -1.2886 H   0  0  0  0  0  0  0  0  0  0  0  0
   -4.8678  -12.5035   -1.1984 H   0  0  0  0  0  0  0  0  0  0  0  0
   -3.0941  -12.6527   -1.1945 H   0  0  0  0  0  0  0  0  0  0  0  0
   -4.0049  -12.8225    0.3254 H   0  0  0  0  0  0  0  0  0  0  0  0
   -2.6814   -2.5085    1.7315 H   0  0  0  0  0  0  0  0  0  0  0  0
   -2.0079   -0.0795   -1.0346 H   0  0  0  0  0  0  0  0  0  0  0  0
  1  2  1  0  0  0  0
  1 21  1  0  0  0  0
  1 22  1  0  0  0  0
  1 23  1  0  0  0  0
  2  3  1  0  0  0  0
  2  4  1  0  0  0  0
  2 24  1  0  0  0  0
  3 25  1  0  0  0  0
  3 26  1  0  0  0  0
  3 27  1  0  0  0  0
  4  5  1  0  0  0  0
  4 28  1  0  0  0  0
  4 42  1  0  0  0  0
  5  6  1  0  0  0  0
  5 29  1  0  0  0  0
  5 30  1  0  0  0  0
  6  7  1  6  0  0  0
  6  8  1  0  0  0  0
  6 20  1  0  0  0  0
  8  9  1  0  0  0  0
  8 31  1  0  0  0  0
  8 32  1  0  0  0  0
  9 10  1  0  0  0  0
 10 15  2  0  0  0  0
 10 11  1  0  0  0  0
 11 12  2  0  0  0  0
 11 33  1  0  0  0  0
 12 13  1  0  0  0  0
 12 34  1  0  0  0  0
 13 14  2  0  0  0  0
 13 16  1  0  0  0  0
 14 15  1  0  0  0  0
 14 35  1  0  0  0  0
 15 36  1  0  0  0  0
 16 17  1  0  0  0  0
 16 37  1  0  0  0  0
 17 18  2  0  0  0  0
 17 19  1  0  0  0  0
 19 38  1  0  0  0  0
 19 39  1  0  0  0  0
 19 40  1  0  0  0  0
 20 41  1  0  0  0  0
M  CHG  1   4   1
M  END
$$$$
