ZINC00901552
 OpenBabel08292219463D

 14 13  0  0  1  0  0  0  0  0999 V2000
   -0.0187    1.5258    0.0104 C   0  0  0  0  0  0  0  0  0  0  0  0
    0.0021   -0.0041    0.0020 C   0  0  1  0  0  0  0  0  0  0  0  0
    0.4324   -0.3564   -0.9354 H   0  0  0  0  0  0  0  0  0  0  0  0
    0.8475   -0.5091    1.1729 C   0  0  0  0  0  0  0  0  0  0  0  0
    0.8721   -2.3229    1.1630 S   0  0  0  0  0  0  0  0  0  0  0  0
   -1.6918   -0.6327    0.1639 S   0  0  0  0  0  0  0  0  0  0  0  0
    1.3220    2.0204    0.0003 O   0  0  0  0  0  0  0  0  0  0  0  0
   -0.5459    1.8868   -0.8726 H   0  0  0  0  0  0  0  0  0  0  0  0
   -0.5289    1.8773    0.9072 H   0  0  0  0  0  0  0  0  0  0  0  0
    1.8654   -0.1314    1.0757 H   0  0  0  0  0  0  0  0  0  0  0  0
    0.4173   -0.1567    2.1104 H   0  0  0  0  0  0  0  0  0  0  0  0
    1.6352   -2.6438    2.2230 H   0  0  0  0  0  0  0  0  0  0  0  0
   -2.1112   -0.1380    1.3422 H   0  0  0  0  0  0  0  0  0  0  0  0
    1.3852    2.9853    0.0049 H   0  0  0  0  0  0  0  0  0  0  0  0
  1  2  1  0  0  0  0
  1  7  1  0  0  0  0
  1  8  1  0  0  0  0
  1  9  1  0  0  0  0
  2  3  1  6  0  0  0
  2  4  1  0  0  0  0
  2  6  1  0  0  0  0
  4  5  1  0  0  0  0
  4 10  1  0  0  0  0
  4 11  1  0  0  0  0
  5 12  1  0  0  0  0
  6 13  1  0  0  0  0
  7 14  1  0  0  0  0
M  END
$$$$
