ZINC21983537
 OpenBabel08292219463D

 57 60  0  0  0  0  0  0  0  0999 V2000
   -0.1194    1.4644   -0.4458 C   0  0  0  0  0  0  0  0  0  0  0  0
    0.0768    0.4110    0.4292 C   0  0  0  0  0  0  0  0  0  0  0  0
    1.2845   -0.2559    0.4508 C   0  0  0  0  0  0  0  0  0  0  0  0
    2.3089    0.1340   -0.4127 C   0  0  0  0  0  0  0  0  0  0  0  0
    2.1043    1.1970   -1.2931 C   0  0  0  0  0  0  0  0  0  0  0  0
    0.8922    1.8559   -1.3044 C   0  0  0  0  0  0  0  0  0  0  0  0
    3.6053   -0.5758   -0.3945 C   0  0  0  0  0  0  0  0  0  0  0  0
    3.6417   -1.8845   -0.1866 C   0  0  0  0  0  0  0  0  0  0  0  0
    2.3606   -2.6773   -0.1488 C   0  0  0  0  0  0  0  0  0  0  0  0
    2.4537   -3.8033   -1.0877 N   0  3  0  0  0  0  0  0  0  0  0  0
    3.5000   -4.7306   -0.6374 C   0  0  0  0  0  0  0  0  0  0  0  0
    3.6102   -5.8941   -1.6252 C   0  0  0  0  0  0  0  0  0  0  0  0
    2.3174   -6.5887   -1.7059 N   0  0  0  0  0  0  0  0  0  0  0  0
    1.2551   -5.6665   -2.1317 C   0  0  0  0  0  0  0  0  0  0  0  0
    1.1643   -4.5049   -1.1396 C   0  0  0  0  0  0  0  0  0  0  0  0
    2.3983   -7.7489   -2.6033 C   0  0  0  0  0  0  0  0  0  0  0  0
    3.5128   -8.6569   -2.1513 C   0  0  0  0  0  0  0  0  0  0  0  0
    3.6406   -8.9812   -0.8136 C   0  0  0  0  0  0  0  0  0  0  0  0
    4.6630   -9.8141   -0.3989 C   0  0  0  0  0  0  0  0  0  0  0  0
    5.5573  -10.3231   -1.3220 C   0  0  0  0  0  0  0  0  0  0  0  0
    5.4289   -9.9995   -2.6598 C   0  0  0  0  0  0  0  0  0  0  0  0
    4.4040   -9.1701   -3.0751 C   0  0  0  0  0  0  0  0  0  0  0  0
    1.0929   -8.5012   -2.5706 C   0  0  0  0  0  0  0  0  0  0  0  0
    0.3896   -8.6138   -1.3858 C   0  0  0  0  0  0  0  0  0  0  0  0
   -0.8078   -9.3039   -1.3558 C   0  0  0  0  0  0  0  0  0  0  0  0
   -1.3021   -9.8810   -2.5106 C   0  0  0  0  0  0  0  0  0  0  0  0
   -0.5993   -9.7676   -3.6955 C   0  0  0  0  0  0  0  0  0  0  0  0
    0.5960   -9.0738   -3.7265 C   0  0  0  0  0  0  0  0  0  0  0  0
   -1.0680    1.9806   -0.4617 H   0  0  0  0  0  0  0  0  0  0  0  0
   -0.7169    0.1102    1.0970 H   0  0  0  0  0  0  0  0  0  0  0  0
    1.4367   -1.0777    1.1348 H   0  0  0  0  0  0  0  0  0  0  0  0
    2.8934    1.5038   -1.9636 H   0  0  0  0  0  0  0  0  0  0  0  0
    0.7327    2.6791   -1.9851 H   0  0  0  0  0  0  0  0  0  0  0  0
    4.5230   -0.0281   -0.5506 H   0  0  0  0  0  0  0  0  0  0  0  0
    4.5893   -2.3826   -0.0443 H   0  0  0  0  0  0  0  0  0  0  0  0
    2.1983   -3.0577    0.8598 H   0  0  0  0  0  0  0  0  0  0  0  0
    1.5272   -2.0349   -0.4333 H   0  0  0  0  0  0  0  0  0  0  0  0
    4.4537   -4.2054   -0.5867 H   0  0  0  0  0  0  0  0  0  0  0  0
    3.2442   -5.1153    0.3499 H   0  0  0  0  0  0  0  0  0  0  0  0
    3.8793   -5.5112   -2.6096 H   0  0  0  0  0  0  0  0  0  0  0  0
    4.3763   -6.5901   -1.2834 H   0  0  0  0  0  0  0  0  0  0  0  0
    1.4855   -5.2798   -3.1244 H   0  0  0  0  0  0  0  0  0  0  0  0
    0.3030   -6.1965   -2.1593 H   0  0  0  0  0  0  0  0  0  0  0  0
    0.9205   -4.8907   -0.1498 H   0  0  0  0  0  0  0  0  0  0  0  0
    0.3865   -3.8124   -1.4613 H   0  0  0  0  0  0  0  0  0  0  0  0
    2.5963   -7.4089   -3.6198 H   0  0  0  0  0  0  0  0  0  0  0  0
    2.9420   -8.5835   -0.0924 H   0  0  0  0  0  0  0  0  0  0  0  0
    4.7633  -10.0668    0.6463 H   0  0  0  0  0  0  0  0  0  0  0  0
    6.3564  -10.9732   -0.9980 H   0  0  0  0  0  0  0  0  0  0  0  0
    6.1278  -10.3969   -3.3810 H   0  0  0  0  0  0  0  0  0  0  0  0
    4.3015   -8.9203   -4.1208 H   0  0  0  0  0  0  0  0  0  0  0  0
    0.7758   -8.1630   -0.4836 H   0  0  0  0  0  0  0  0  0  0  0  0
   -1.3569   -9.3925   -0.4301 H   0  0  0  0  0  0  0  0  0  0  0  0
   -2.2373  -10.4207   -2.4870 H   0  0  0  0  0  0  0  0  0  0  0  0
   -0.9853  -10.2187   -4.5977 H   0  0  0  0  0  0  0  0  0  0  0  0
    1.1433   -8.9821   -4.6530 H   0  0  0  0  0  0  0  0  0  0  0  0
    2.6849   -3.4565   -2.0065 H   0  0  0  0  0  0  0  0  0  0  0  0
  1  6  2  0  0  0  0
  1  2  1  0  0  0  0
  1 29  1  0  0  0  0
  2  3  2  0  0  0  0
  2 30  1  0  0  0  0
  3  4  1  0  0  0  0
  3 31  1  0  0  0  0
  4  5  2  0  0  0  0
  4  7  1  0  0  0  0
  5  6  1  0  0  0  0
  5 32  1  0  0  0  0
  6 33  1  0  0  0  0
  7  8  2  0  0  0  0
  7 34  1  0  0  0  0
  8  9  1  0  0  0  0
  8 35  1  0  0  0  0
  9 10  1  0  0  0  0
  9 36  1  0  0  0  0
  9 37  1  0  0  0  0
 10 15  1  0  0  0  0
 10 11  1  0  0  0  0
 10 57  1  0  0  0  0
 11 12  1  0  0  0  0
 11 38  1  0  0  0  0
 11 39  1  0  0  0  0
 12 13  1  0  0  0  0
 12 40  1  0  0  0  0
 12 41  1  0  0  0  0
 13 14  1  0  0  0  0
 13 16  1  0  0  0  0
 14 15  1  0  0  0  0
 14 42  1  0  0  0  0
 14 43  1  0  0  0  0
 15 44  1  0  0  0  0
 15 45  1  0  0  0  0
 16 17  1  0  0  0  0
 16 23  1  0  0  0  0
 16 46  1  0  0  0  0
 17 22  2  0  0  0  0
 17 18  1  0  0  0  0
 18 19  2  0  0  0  0
 18 47  1  0  0  0  0
 19 20  1  0  0  0  0
 19 48  1  0  0  0  0
 20 21  2  0  0  0  0
 20 49  1  0  0  0  0
 21 22  1  0  0  0  0
 21 50  1  0  0  0  0
 22 51  1  0  0  0  0
 23 28  2  0  0  0  0
 23 24  1  0  0  0  0
 24 25  2  0  0  0  0
 24 52  1  0  0  0  0
 25 26  1  0  0  0  0
 25 53  1  0  0  0  0
 26 27  2  0  0  0  0
 26 54  1  0  0  0  0
 27 28  1  0  0  0  0
 27 55  1  0  0  0  0
 28 56  1  0  0  0  0
M  CHG  1  10   1
M  END
$$$$
