ZINC00896683
 OpenBabel08292219463D

 42 45  0  0  1  0  0  0  0  0999 V2000
   -0.0178    1.4648    0.0101 C   0  0  0  0  0  0  0  0  0  0  0  0
    0.0021   -0.0041    0.0020 N   0  3  1  0  0  0  0  0  0  0  0  0
    0.7665   -0.4973   -1.1641 C   0  0  0  0  0  0  0  0  0  0  0  0
    1.5080   -1.7693   -0.7129 C   0  0  0  0  0  0  0  0  0  0  0  0
    1.1413   -1.9428    0.7789 C   0  0  2  0  0  0  0  0  0  0  0  0
    0.3118   -2.6405    0.8936 H   0  0  0  0  0  0  0  0  0  0  0  0
    0.7176   -0.5132    1.2000 C   0  0  0  0  0  0  0  0  0  0  0  0
    2.3552   -2.4110    1.5839 C   0  0  0  0  0  0  0  0  0  0  0  0
    2.7284   -3.7636    1.1627 N   0  0  0  0  0  0  0  0  0  0  0  0
    2.1530   -4.8608    1.8124 C   0  0  0  0  0  0  0  0  0  0  0  0
    1.9191   -4.8213    3.1781 C   0  0  0  0  0  0  0  0  0  0  0  0
    1.3511   -5.9114    3.8142 C   0  0  0  0  0  0  0  0  0  0  0  0
    1.0141   -7.0433    3.0970 C   0  0  0  0  0  0  0  0  0  0  0  0
    1.2433   -7.0936    1.7316 C   0  0  0  0  0  0  0  0  0  0  0  0
    1.8098   -6.0078    1.0919 C   0  0  0  0  0  0  0  0  0  0  0  0
    2.1146   -6.0419   -0.6471 S   0  0  0  0  0  0  0  0  0  0  0  0
    3.4937   -4.9511   -0.8095 C   0  0  0  0  0  0  0  0  0  0  0  0
    3.6457   -3.9214    0.1182 C   0  0  0  0  0  0  0  0  0  0  0  0
    4.7222   -3.0567   -0.0040 C   0  0  0  0  0  0  0  0  0  0  0  0
    5.6267   -3.2205   -1.0386 C   0  0  0  0  0  0  0  0  0  0  0  0
    5.4654   -4.2424   -1.9544 C   0  0  0  0  0  0  0  0  0  0  0  0
    4.4036   -5.1103   -1.8371 C   0  0  0  0  0  0  0  0  0  0  0  0
    1.0047    1.8421    0.0024 H   0  0  0  0  0  0  0  0  0  0  0  0
   -0.5450    1.8259   -0.8730 H   0  0  0  0  0  0  0  0  0  0  0  0
   -0.5280    1.8163    0.9069 H   0  0  0  0  0  0  0  0  0  0  0  0
    0.0852   -0.7348   -1.9812 H   0  0  0  0  0  0  0  0  0  0  0  0
    1.4848    0.2577   -1.4836 H   0  0  0  0  0  0  0  0  0  0  0  0
    1.1677   -2.6300   -1.2887 H   0  0  0  0  0  0  0  0  0  0  0  0
    2.5844   -1.6397   -0.8253 H   0  0  0  0  0  0  0  0  0  0  0  0
    1.5928    0.0999    1.4148 H   0  0  0  0  0  0  0  0  0  0  0  0
    0.0501   -0.5477    2.0610 H   0  0  0  0  0  0  0  0  0  0  0  0
    3.1905   -1.7327    1.4095 H   0  0  0  0  0  0  0  0  0  0  0  0
    2.1072   -2.4165    2.6453 H   0  0  0  0  0  0  0  0  0  0  0  0
    2.1803   -3.9404    3.7456 H   0  0  0  0  0  0  0  0  0  0  0  0
    1.1704   -5.8772    4.8784 H   0  0  0  0  0  0  0  0  0  0  0  0
    0.5719   -7.8897    3.6014 H   0  0  0  0  0  0  0  0  0  0  0  0
    0.9805   -7.9778    1.1697 H   0  0  0  0  0  0  0  0  0  0  0  0
    4.8548   -2.2553    0.7077 H   0  0  0  0  0  0  0  0  0  0  0  0
    6.4641   -2.5447   -1.1309 H   0  0  0  0  0  0  0  0  0  0  0  0
    6.1761   -4.3633   -2.7586 H   0  0  0  0  0  0  0  0  0  0  0  0
    4.2783   -5.9085   -2.5537 H   0  0  0  0  0  0  0  0  0  0  0  0
   -0.9399   -0.3651   -0.0202 H   0  0  0  0  0  0  0  0  0  0  0  0
  1  2  1  0  0  0  0
  1 23  1  0  0  0  0
  1 24  1  0  0  0  0
  1 25  1  0  0  0  0
  2  7  1  0  0  0  0
  2  3  1  0  0  0  0
  2 42  1  6  0  0  0
  3  4  1  0  0  0  0
  3 26  1  0  0  0  0
  3 27  1  0  0  0  0
  4  5  1  0  0  0  0
  4 28  1  0  0  0  0
  4 29  1  0  0  0  0
  5  6  1  1  0  0  0
  5  7  1  0  0  0  0
  5  8  1  0  0  0  0
  7 30  1  0  0  0  0
  7 31  1  0  0  0  0
  8  9  1  0  0  0  0
  8 32  1  0  0  0  0
  8 33  1  0  0  0  0
  9 18  1  0  0  0  0
  9 10  1  0  0  0  0
 10 15  2  0  0  0  0
 10 11  1  0  0  0  0
 11 12  2  0  0  0  0
 11 34  1  0  0  0  0
 12 13  1  0  0  0  0
 12 35  1  0  0  0  0
 13 14  2  0  0  0  0
 13 36  1  0  0  0  0
 14 15  1  0  0  0  0
 14 37  1  0  0  0  0
 15 16  1  0  0  0  0
 16 17  1  0  0  0  0
 17 22  2  0  0  0  0
 17 18  1  0  0  0  0
 18 19  2  0  0  0  0
 19 20  1  0  0  0  0
 19 38  1  0  0  0  0
 20 21  2  0  0  0  0
 20 39  1  0  0  0  0
 21 22  1  0  0  0  0
 21 40  1  0  0  0  0
 22 41  1  0  0  0  0
M  CHG  1   2   1
M  END
$$$$
