ZINC03799072
 OpenBabel08292219463D

 68 69  0  0  1  0  0  0  0  0999 V2000
   -0.0167    1.3781    0.0096 C   0  0  0  0  0  0  0  0  0  0  0  0
    1.1709    2.0855    0.0021 C   0  0  0  0  0  0  0  0  0  0  0  0
    2.3773    1.4107   -0.0130 C   0  0  0  0  0  0  0  0  0  0  0  0
    2.3960    0.0285   -0.0201 C   0  0  0  0  0  0  0  0  0  0  0  0
    1.2084   -0.6789   -0.0117 C   0  0  0  0  0  0  0  0  0  0  0  0
    0.0021   -0.0041    0.0020 C   0  0  0  0  0  0  0  0  0  0  0  0
    3.7112   -0.7071   -0.0376 C   0  0  0  0  0  0  0  0  0  0  0  0
    4.1714   -0.9633    1.3989 C   0  0  0  0  0  0  0  0  0  0  0  0
    5.5066   -1.7102    1.3812 C   0  0  0  0  0  0  0  0  0  0  0  0
    5.9667   -1.9663    2.8177 C   0  0  0  0  0  0  0  0  0  0  0  0
    7.2138   -2.6639    2.8011 O   0  0  0  0  0  0  0  0  0  0  0  0
    7.7347   -2.9541    4.0998 C   0  0  0  0  0  0  0  0  0  0  0  0
    9.0645   -3.6981    3.9613 C   0  0  0  0  0  0  0  0  0  0  0  0
    9.6222   -4.0088    5.3517 C   0  0  0  0  0  0  0  0  0  0  0  0
   10.9520   -4.7528    5.2133 C   0  0  0  0  0  0  0  0  0  0  0  0
   11.5097   -5.0635    6.6037 C   0  0  0  0  0  0  0  0  0  0  0  0
   12.8395   -5.8075    6.4652 C   0  0  0  0  0  0  0  0  0  0  0  0
   13.3750   -6.1058    7.8002 N   0  3  0  0  0  0  0  0  0  0  0  0
   14.6517   -6.8201    7.6672 C   0  0  0  0  0  0  0  0  0  0  0  0
   15.2094   -7.1309    9.0577 C   0  0  1  0  0  0  0  0  0  0  0  0
   14.4999   -7.7533    9.6029 H   0  0  0  0  0  0  0  0  0  0  0  0
   16.5192   -7.8636    8.9213 C   0  0  0  0  0  0  0  0  0  0  0  0
   17.6943   -7.1527    8.7596 C   0  0  0  0  0  0  0  0  0  0  0  0
   18.8960   -7.8220    8.6339 C   0  0  0  0  0  0  0  0  0  0  0  0
   18.9235   -9.2088    8.6705 C   0  0  0  0  0  0  0  0  0  0  0  0
   17.7435   -9.9195    8.8332 C   0  0  0  0  0  0  0  0  0  0  0  0
   16.5447   -9.2452    8.9637 C   0  0  0  0  0  0  0  0  0  0  0  0
   17.7698  -11.4258    8.8734 C   0  0  0  0  0  0  0  0  0  0  0  0
   16.4407  -11.9209    9.0479 O   0  0  0  0  0  0  0  0  0  0  0  0
   20.1046   -9.8696    8.5466 O   0  0  0  0  0  0  0  0  0  0  0  0
   15.4185   -5.9103    9.7708 O   0  0  0  0  0  0  0  0  0  0  0  0
   -0.9591    1.9053    0.0259 H   0  0  0  0  0  0  0  0  0  0  0  0
    1.1563    3.1654    0.0076 H   0  0  0  0  0  0  0  0  0  0  0  0
    3.3051    1.9634   -0.0196 H   0  0  0  0  0  0  0  0  0  0  0  0
    1.2231   -1.7588   -0.0176 H   0  0  0  0  0  0  0  0  0  0  0  0
   -0.9258   -0.5567    0.0082 H   0  0  0  0  0  0  0  0  0  0  0  0
    3.5884   -1.6586   -0.5549 H   0  0  0  0  0  0  0  0  0  0  0  0
    4.4573   -0.1052   -0.5563 H   0  0  0  0  0  0  0  0  0  0  0  0
    4.2941   -0.0118    1.9163 H   0  0  0  0  0  0  0  0  0  0  0  0
    3.4252   -1.5652    1.9176 H   0  0  0  0  0  0  0  0  0  0  0  0
    5.3838   -2.6617    0.8639 H   0  0  0  0  0  0  0  0  0  0  0  0
    6.2527   -1.1082    0.8625 H   0  0  0  0  0  0  0  0  0  0  0  0
    6.0895   -1.0148    3.3350 H   0  0  0  0  0  0  0  0  0  0  0  0
    5.2206   -2.5682    3.3364 H   0  0  0  0  0  0  0  0  0  0  0  0
    7.8942   -2.0231    4.6437 H   0  0  0  0  0  0  0  0  0  0  0  0
    7.0252   -3.5766    4.6451 H   0  0  0  0  0  0  0  0  0  0  0  0
    8.9050   -4.6291    3.4174 H   0  0  0  0  0  0  0  0  0  0  0  0
    9.7740   -3.0757    3.4160 H   0  0  0  0  0  0  0  0  0  0  0  0
    9.7817   -3.0778    5.8957 H   0  0  0  0  0  0  0  0  0  0  0  0
    8.9127   -4.6313    5.8970 H   0  0  0  0  0  0  0  0  0  0  0  0
   10.7925   -5.6838    4.6693 H   0  0  0  0  0  0  0  0  0  0  0  0
   11.6615   -4.1304    4.6680 H   0  0  0  0  0  0  0  0  0  0  0  0
   11.6692   -4.1325    7.1476 H   0  0  0  0  0  0  0  0  0  0  0  0
   10.8002   -5.6860    7.1490 H   0  0  0  0  0  0  0  0  0  0  0  0
   12.6800   -6.7385    5.9213 H   0  0  0  0  0  0  0  0  0  0  0  0
   13.5489   -5.1851    5.9199 H   0  0  0  0  0  0  0  0  0  0  0  0
   13.5226   -5.2440    8.3037 H   0  0  0  0  0  0  0  0  0  0  0  0
   14.4922   -7.7512    7.1233 H   0  0  0  0  0  0  0  0  0  0  0  0
   15.3612   -6.1977    7.1220 H   0  0  0  0  0  0  0  0  0  0  0  0
   17.6723   -6.0733    8.7311 H   0  0  0  0  0  0  0  0  0  0  0  0
   19.8133   -7.2664    8.5069 H   0  0  0  0  0  0  0  0  0  0  0  0
   15.6261   -9.7980    9.0945 H   0  0  0  0  0  0  0  0  0  0  0  0
   18.1797  -11.8071    7.9381 H   0  0  0  0  0  0  0  0  0  0  0  0
   18.3928  -11.7563    9.7045 H   0  0  0  0  0  0  0  0  0  0  0  0
   16.3818  -12.8855    9.0828 H   0  0  0  0  0  0  0  0  0  0  0  0
   20.5525  -10.0356    9.3874 H   0  0  0  0  0  0  0  0  0  0  0  0
   16.0402   -5.3061    9.3424 H   0  0  0  0  0  0  0  0  0  0  0  0
   12.7182   -6.6820    8.3050 H   0  0  0  0  0  0  0  0  0  0  0  0
  1  6  2  0  0  0  0
  1  2  1  0  0  0  0
  1 32  1  0  0  0  0
  2  3  2  0  0  0  0
  2 33  1  0  0  0  0
  3  4  1  0  0  0  0
  3 34  1  0  0  0  0
  4  5  2  0  0  0  0
  4  7  1  0  0  0  0
  5  6  1  0  0  0  0
  5 35  1  0  0  0  0
  6 36  1  0  0  0  0
  7  8  1  0  0  0  0
  7 37  1  0  0  0  0
  7 38  1  0  0  0  0
  8  9  1  0  0  0  0
  8 39  1  0  0  0  0
  8 40  1  0  0  0  0
  9 10  1  0  0  0  0
  9 41  1  0  0  0  0
  9 42  1  0  0  0  0
 10 11  1  0  0  0  0
 10 43  1  0  0  0  0
 10 44  1  0  0  0  0
 11 12  1  0  0  0  0
 12 13  1  0  0  0  0
 12 45  1  0  0  0  0
 12 46  1  0  0  0  0
 13 14  1  0  0  0  0
 13 47  1  0  0  0  0
 13 48  1  0  0  0  0
 14 15  1  0  0  0  0
 14 49  1  0  0  0  0
 14 50  1  0  0  0  0
 15 16  1  0  0  0  0
 15 51  1  0  0  0  0
 15 52  1  0  0  0  0
 16 17  1  0  0  0  0
 16 53  1  0  0  0  0
 16 54  1  0  0  0  0
 17 18  1  0  0  0  0
 17 55  1  0  0  0  0
 17 56  1  0  0  0  0
 18 19  1  0  0  0  0
 18 57  1  0  0  0  0
 18 68  1  0  0  0  0
 19 20  1  0  0  0  0
 19 58  1  0  0  0  0
 19 59  1  0  0  0  0
 20 21  1  1  0  0  0
 20 22  1  0  0  0  0
 20 31  1  0  0  0  0
 22 27  2  0  0  0  0
 22 23  1  0  0  0  0
 23 24  2  0  0  0  0
 23 60  1  0  0  0  0
 24 25  1  0  0  0  0
 24 61  1  0  0  0  0
 25 26  2  0  0  0  0
 25 30  1  0  0  0  0
 26 27  1  0  0  0  0
 26 28  1  0  0  0  0
 27 62  1  0  0  0  0
 28 29  1  0  0  0  0
 28 63  1  0  0  0  0
 28 64  1  0  0  0  0
 29 65  1  0  0  0  0
 30 66  1  0  0  0  0
 31 67  1  0  0  0  0
M  CHG  1  18   1
M  END
$$$$
