ZINC01530621
 OpenBabel08292219463D

 36 37  0  0  1  0  0  0  0  0999 V2000
   -0.1492    1.5288   -2.3323 C   0  0  0  0  0  0  0  0  0  0  0  0
   -0.1164   -0.0009   -2.3383 C   0  0  0  0  0  0  0  0  0  0  0  0
    0.6897   -0.4778   -1.2066 N   0  3  0  0  0  0  0  0  0  0  0  0
    0.6171   -1.9434   -1.1370 C   0  0  1  0  0  0  0  0  0  0  0  0
   -0.4294   -2.2430   -1.0818 H   0  0  0  0  0  0  0  0  0  0  0  0
    1.2315   -2.5278   -2.3982 C   0  0  0  0  0  0  0  0  0  0  0  0
    1.0962   -4.0576   -2.4201 C   0  0  1  0  0  0  0  0  0  0  0  0
    1.3613   -4.4411   -3.4054 H   0  0  0  0  0  0  0  0  0  0  0  0
    2.2539   -4.7069   -1.1650 S   0  0  0  0  0  0  0  0  0  0  0  0
    3.5991   -4.5241   -1.5850 O   0  0  0  0  0  0  0  0  0  0  0  0
    1.8041   -5.9618   -0.6729 O   0  0  0  0  0  0  0  0  0  0  0  0
    2.0269   -3.5802    0.1606 C   0  0  0  0  0  0  0  0  0  0  0  0
    1.3317   -2.4135    0.1206 C   0  0  0  0  0  0  0  0  0  0  0  0
    1.3152   -1.6792    1.3120 C   0  0  0  0  0  0  0  0  0  0  0  0
    1.9529   -2.1428    2.4103 C   0  0  0  0  0  0  0  0  0  0  0  0
    2.6320   -3.6831    1.8188 S   0  0  0  0  0  0  0  0  0  0  0  0
    2.0784   -1.4167    4.0108 S   0  0  0  0  0  0  0  0  0  0  0  0
    3.2503   -1.9529    4.6093 O   0  0  0  0  0  0  0  0  0  0  0  0
    1.8813   -0.0198    3.8397 O   0  0  0  0  0  0  0  0  0  0  0  0
    0.7966   -1.9699    4.9014 N   0  0  0  0  0  0  0  0  0  0  0  0
   -0.3376   -4.4611   -2.0706 C   0  0  0  0  0  0  0  0  0  0  0  0
   -0.5902    1.8790   -1.3990 H   0  0  0  0  0  0  0  0  0  0  0  0
    0.8664    1.9144   -2.4215 H   0  0  0  0  0  0  0  0  0  0  0  0
   -0.7473    1.8826   -3.1720 H   0  0  0  0  0  0  0  0  0  0  0  0
   -1.1320   -0.3865   -2.2491 H   0  0  0  0  0  0  0  0  0  0  0  0
    0.3246   -0.3511   -3.2716 H   0  0  0  0  0  0  0  0  0  0  0  0
    1.6496   -0.1943   -1.3342 H   0  0  0  0  0  0  0  0  0  0  0  0
    0.7251   -2.1113   -3.2689 H   0  0  0  0  0  0  0  0  0  0  0  0
    2.2877   -2.2615   -2.4382 H   0  0  0  0  0  0  0  0  0  0  0  0
    0.7901   -0.7364    1.3541 H   0  0  0  0  0  0  0  0  0  0  0  0
    0.1572   -2.5812    4.5032 H   0  0  0  0  0  0  0  0  0  0  0  0
    0.6850   -1.6827    5.8211 H   0  0  0  0  0  0  0  0  0  0  0  0
   -1.0243   -4.0299   -2.7990 H   0  0  0  0  0  0  0  0  0  0  0  0
   -0.4240   -5.5475   -2.0887 H   0  0  0  0  0  0  0  0  0  0  0  0
   -0.5861   -4.0934   -1.0750 H   0  0  0  0  0  0  0  0  0  0  0  0
    0.3332   -0.0823   -0.3495 H   0  0  0  0  0  0  0  0  0  0  0  0
  1  2  1  0  0  0  0
  1 22  1  0  0  0  0
  1 23  1  0  0  0  0
  1 24  1  0  0  0  0
  2  3  1  0  0  0  0
  2 25  1  0  0  0  0
  2 26  1  0  0  0  0
  3  4  1  0  0  0  0
  3 27  1  0  0  0  0
  3 36  1  0  0  0  0
  4  5  1  1  0  0  0
  4 13  1  0  0  0  0
  4  6  1  0  0  0  0
  6  7  1  0  0  0  0
  6 28  1  0  0  0  0
  6 29  1  0  0  0  0
  7  8  1  6  0  0  0
  7  9  1  0  0  0  0
  7 21  1  0  0  0  0
  9 10  2  0  0  0  0
  9 11  2  0  0  0  0
  9 12  1  0  0  0  0
 12 16  1  0  0  0  0
 12 13  2  0  0  0  0
 13 14  1  0  0  0  0
 14 15  2  0  0  0  0
 14 30  1  0  0  0  0
 15 16  1  0  0  0  0
 15 17  1  0  0  0  0
 17 18  2  0  0  0  0
 17 19  2  0  0  0  0
 17 20  1  0  0  0  0
 20 31  1  0  0  0  0
 20 32  1  0  0  0  0
 21 33  1  0  0  0  0
 21 34  1  0  0  0  0
 21 35  1  0  0  0  0
M  CHG  1   3   1
M  END
$$$$
