ZINC04099008
 OpenBabel08292219463D

 78 85  0  0  1  0  0  0  0  0999 V2000
   -1.2344    5.6092   -1.3239 C   0  0  0  0  0  0  0  0  0  0  0  0
    0.0058    5.0598   -0.8744 O   0  0  0  0  0  0  0  0  0  0  0  0
   -0.0123    3.7732   -0.4342 C   0  0  0  0  0  0  0  0  0  0  0  0
   -1.1989    3.0556   -0.4353 C   0  0  0  0  0  0  0  0  0  0  0  0
   -1.2194    1.7497    0.0173 C   0  0  0  0  0  0  0  0  0  0  0  0
   -0.0563    1.1502    0.4628 C   0  0  0  0  0  0  0  0  0  0  0  0
    1.1345    1.8609    0.4671 C   0  0  0  0  0  0  0  0  0  0  0  0
    1.1583    3.1758    0.0178 C   0  0  0  0  0  0  0  0  0  0  0  0
    2.3249    3.8768    0.0209 O   0  0  0  0  0  0  0  0  0  0  0  0
    2.2772    1.2720    0.9108 O   0  0  0  0  0  0  0  0  0  0  0  0
    2.1783   -0.0817    1.3577 C   0  0  0  0  0  0  0  0  0  0  0  0
   -2.5124    0.9755    0.0197 C   0  0  2  0  0  0  0  0  0  0  0  0
   -2.3040   -0.0901   -0.0761 H   0  0  0  0  0  0  0  0  0  0  0  0
   -3.3874    1.4335   -1.1341 C   0  0  0  0  0  0  0  0  0  0  0  0
   -3.0575    0.9280   -2.3932 C   0  0  0  0  0  0  0  0  0  0  0  0
   -3.8338    1.3144   -3.4723 C   0  0  0  0  0  0  0  0  0  0  0  0
   -4.9203    2.1864   -3.3015 C   0  0  0  0  0  0  0  0  0  0  0  0
   -5.2403    2.6850   -2.0504 C   0  0  0  0  0  0  0  0  0  0  0  0
   -4.4488    2.2962   -0.9675 C   0  0  0  0  0  0  0  0  0  0  0  0
   -4.8265    2.8848    0.3804 C   0  0  2  0  0  0  0  0  0  0  0  0
   -5.0908    3.9358    0.2629 H   0  0  0  0  0  0  0  0  0  0  0  0
   -3.6250    2.7572    1.2978 C   0  0  2  0  0  0  0  0  0  0  0  0
   -2.7932    3.3779    0.9648 H   0  0  0  0  0  0  0  0  0  0  0  0
   -3.2632    1.2365    1.3087 C   0  0  2  0  0  0  0  0  0  0  0  0
   -4.1677    0.6297    1.3500 H   0  0  0  0  0  0  0  0  0  0  0  0
   -2.4898    1.1237    2.5952 C   0  0  0  0  0  0  0  0  0  0  0  0
   -1.6308    0.3065    2.8278 O   0  0  0  0  0  0  0  0  0  0  0  0
   -2.9089    2.0955    3.4392 O   0  0  0  0  0  0  0  0  0  0  0  0
   -3.9197    2.9456    2.7941 C   0  0  0  0  0  0  0  0  0  0  0  0
   -5.9333    2.1664    0.9288 O   0  0  0  0  0  0  0  0  0  0  0  0
   -7.2090    2.6956    0.5618 C   0  0  1  0  0  0  0  0  0  0  0  0
   -7.2768    2.7558   -0.5244 H   0  0  0  0  0  0  0  0  0  0  0  0
   -8.3111    1.7738    1.0867 C   0  0  1  0  0  0  0  0  0  0  0  0
   -8.2028    1.6564    2.1649 H   0  0  0  0  0  0  0  0  0  0  0  0
   -9.6845    2.3811    0.7748 C   0  0  2  0  0  0  0  0  0  0  0  0
   -9.8207    2.4439   -0.3049 H   0  0  0  0  0  0  0  0  0  0  0  0
   -9.7431    3.7826    1.3824 C   0  0  1  0  0  0  0  0  0  0  0  0
   -9.6230    3.7157    2.4637 H   0  0  0  0  0  0  0  0  0  0  0  0
   -8.6019    4.6207    0.7919 C   0  0  2  0  0  0  0  0  0  0  0  0
   -8.7088    4.6668   -0.2919 H   0  0  0  0  0  0  0  0  0  0  0  0
   -7.3586    4.0050    1.1204 O   0  0  0  0  0  0  0  0  0  0  0  0
   -8.6911    6.0326    1.3727 C   0  0  0  0  0  0  0  0  0  0  0  0
   -9.9974    6.5522    1.0958 O   0  0  0  0  0  0  0  0  0  0  0  0
  -11.0673    5.7541    1.6044 C   0  0  1  0  0  0  0  0  0  0  0  0
  -12.0193    6.1972    1.3122 H   0  0  0  0  0  0  0  0  0  0  0  0
  -10.9816    4.4243    1.0799 O   0  0  0  0  0  0  0  0  0  0  0  0
  -10.9794    5.7049    3.1080 C   0  0  0  0  0  0  0  0  0  0  0  0
  -11.0125    6.7259    3.9989 C   0  0  0  0  0  0  0  0  0  0  0  0
  -10.9180    6.4415    5.3483 C   0  0  0  0  0  0  0  0  0  0  0  0
  -10.7845    5.1508    5.7402 C   0  0  0  0  0  0  0  0  0  0  0  0
  -10.7970    4.2872    4.1777 S   0  0  0  0  0  0  0  0  0  0  0  0
  -10.7137    1.5682    1.3422 O   0  0  0  0  0  0  0  0  0  0  0  0
   -8.2021    0.4958    0.4567 O   0  0  0  0  0  0  0  0  0  0  0  0
   -5.5047    2.3949   -4.5031 O   0  0  0  0  0  0  0  0  0  0  0  0
   -5.0143    1.3420   -5.3592 C   0  0  0  0  0  0  0  0  0  0  0  0
   -3.7422    0.9837   -4.7803 O   0  0  0  0  0  0  0  0  0  0  0  0
   -1.0799    6.6387   -1.6468 H   0  0  0  0  0  0  0  0  0  0  0  0
   -1.6117    5.0191   -2.1592 H   0  0  0  0  0  0  0  0  0  0  0  0
   -1.9576    5.5887   -0.5086 H   0  0  0  0  0  0  0  0  0  0  0  0
   -2.1091    3.5192   -0.7860 H   0  0  0  0  0  0  0  0  0  0  0  0
   -0.0757    0.1285    0.8121 H   0  0  0  0  0  0  0  0  0  0  0  0
    2.4900    4.3621    0.8409 H   0  0  0  0  0  0  0  0  0  0  0  0
    1.8238   -0.7092    0.5400 H   0  0  0  0  0  0  0  0  0  0  0  0
    3.1585   -0.4292    1.6838 H   0  0  0  0  0  0  0  0  0  0  0  0
    1.4769   -0.1392    2.1901 H   0  0  0  0  0  0  0  0  0  0  0  0
   -2.2214    0.2565   -2.5214 H   0  0  0  0  0  0  0  0  0  0  0  0
   -6.0766    3.3549   -1.9158 H   0  0  0  0  0  0  0  0  0  0  0  0
   -3.7890    3.9881    3.0845 H   0  0  0  0  0  0  0  0  0  0  0  0
   -4.9261    2.6030    3.0350 H   0  0  0  0  0  0  0  0  0  0  0  0
   -8.5289    5.9976    2.4500 H   0  0  0  0  0  0  0  0  0  0  0  0
   -7.9382    6.6692    0.9079 H   0  0  0  0  0  0  0  0  0  0  0  0
  -11.1139    7.7462    3.6596 H   0  0  0  0  0  0  0  0  0  0  0  0
  -10.9464    7.2361    6.0792 H   0  0  0  0  0  0  0  0  0  0  0  0
  -10.6936    4.7491    6.7386 H   0  0  0  0  0  0  0  0  0  0  0  0
  -10.7340    0.6639    1.0003 H   0  0  0  0  0  0  0  0  0  0  0  0
   -7.3583    0.0504    0.6139 H   0  0  0  0  0  0  0  0  0  0  0  0
   -5.6941    0.4900   -5.3445 H   0  0  0  0  0  0  0  0  0  0  0  0
   -4.8813    1.7082   -6.3771 H   0  0  0  0  0  0  0  0  0  0  0  0
  1  2  1  0  0  0  0
  1 57  1  0  0  0  0
  1 58  1  0  0  0  0
  1 59  1  0  0  0  0
  2  3  1  0  0  0  0
  3  8  2  0  0  0  0
  3  4  1  0  0  0  0
  4  5  2  0  0  0  0
  4 60  1  0  0  0  0
  5  6  1  0  0  0  0
  5 12  1  0  0  0  0
  6  7  2  0  0  0  0
  6 61  1  0  0  0  0
  7  8  1  0  0  0  0
  7 10  1  0  0  0  0
  8  9  1  0  0  0  0
  9 62  1  0  0  0  0
 10 11  1  0  0  0  0
 11 63  1  0  0  0  0
 11 64  1  0  0  0  0
 11 65  1  0  0  0  0
 12 13  1  6  0  0  0
 12 24  1  0  0  0  0
 12 14  1  0  0  0  0
 14 19  2  0  0  0  0
 14 15  1  0  0  0  0
 15 16  2  0  0  0  0
 15 66  1  0  0  0  0
 16 56  1  0  0  0  0
 16 17  1  0  0  0  0
 17 18  2  0  0  0  0
 17 54  1  0  0  0  0
 18 19  1  0  0  0  0
 18 67  1  0  0  0  0
 19 20  1  0  0  0  0
 20 21  1  6  0  0  0
 20 22  1  0  0  0  0
 20 30  1  0  0  0  0
 22 23  1  6  0  0  0
 22 29  1  0  0  0  0
 22 24  1  0  0  0  0
 24 25  1  1  0  0  0
 24 26  1  0  0  0  0
 26 27  2  0  0  0  0
 26 28  1  0  0  0  0
 28 29  1  0  0  0  0
 29 68  1  0  0  0  0
 29 69  1  0  0  0  0
 30 31  1  0  0  0  0
 31 32  1  6  0  0  0
 31 41  1  0  0  0  0
 31 33  1  0  0  0  0
 33 34  1  1  0  0  0
 33 35  1  0  0  0  0
 33 53  1  0  0  0  0
 35 36  1  6  0  0  0
 35 37  1  0  0  0  0
 35 52  1  0  0  0  0
 37 38  1  1  0  0  0
 37 46  1  0  0  0  0
 37 39  1  0  0  0  0
 39 40  1  6  0  0  0
 39 41  1  0  0  0  0
 39 42  1  0  0  0  0
 42 43  1  0  0  0  0
 42 70  1  0  0  0  0
 42 71  1  0  0  0  0
 43 44  1  0  0  0  0
 44 45  1  6  0  0  0
 44 46  1  0  0  0  0
 44 47  1  0  0  0  0
 47 51  1  0  0  0  0
 47 48  2  0  0  0  0
 48 49  1  0  0  0  0
 48 72  1  0  0  0  0
 49 50  2  0  0  0  0
 49 73  1  0  0  0  0
 50 51  1  0  0  0  0
 50 74  1  0  0  0  0
 52 75  1  0  0  0  0
 53 76  1  0  0  0  0
 54 55  1  0  0  0  0
 55 56  1  0  0  0  0
 55 77  1  0  0  0  0
 55 78  1  0  0  0  0
M  END
$$$$
