ZINC00584092
 OpenBabel08292219463D

 46 47  0  0  0  0  0  0  0  0999 V2000
   -5.3520    2.0187   -0.3089 C   0  0  0  0  0  0  0  0  0  0  0  0
   -4.6606    0.8990   -1.0895 C   0  0  0  0  0  0  0  0  0  0  0  0
   -3.5931    1.5002   -2.0060 C   0  0  0  0  0  0  0  0  0  0  0  0
   -4.0456   -0.0100   -0.1743 O   0  0  0  0  0  0  0  0  0  0  0  0
   -3.9475   -1.2915   -0.5616 C   0  0  0  0  0  0  0  0  0  0  0  0
   -4.3699   -1.6302   -1.6418 O   0  0  0  0  0  0  0  0  0  0  0  0
   -3.3107   -2.3078    0.3509 C   0  0  0  0  0  0  0  0  0  0  0  0
   -1.8655   -1.8978    0.6412 C   0  0  0  0  0  0  0  0  0  0  0  0
   -4.0945   -2.3771    1.6630 C   0  0  0  0  0  0  0  0  0  0  0  0
   -3.3244   -3.5896   -0.2806 O   0  0  0  0  0  0  0  0  0  0  0  0
   -4.5377   -4.1038   -0.6045 C   0  0  0  0  0  0  0  0  0  0  0  0
   -5.6841   -3.3358   -0.4334 C   0  0  0  0  0  0  0  0  0  0  0  0
   -6.9169   -3.8533   -0.7612 C   0  0  0  0  0  0  0  0  0  0  0  0
   -7.0152   -5.1534   -1.2669 C   0  0  0  0  0  0  0  0  0  0  0  0
   -5.8595   -5.9223   -1.4374 C   0  0  0  0  0  0  0  0  0  0  0  0
   -4.6303   -5.3950   -1.1120 C   0  0  0  0  0  0  0  0  0  0  0  0
   -8.3339   -5.7122   -1.6190 C   0  0  0  0  0  0  0  0  0  0  0  0
   -9.2622   -4.9681   -1.8701 O   0  0  0  0  0  0  0  0  0  0  0  0
   -8.5270   -7.1760   -1.6667 C   0  0  0  0  0  0  0  0  0  0  0  0
   -7.6759   -8.0195   -0.9484 C   0  0  0  0  0  0  0  0  0  0  0  0
   -7.8616   -9.3847   -0.9966 C   0  0  0  0  0  0  0  0  0  0  0  0
   -8.8895   -9.9205   -1.7553 C   0  0  0  0  0  0  0  0  0  0  0  0
   -9.7369   -9.0894   -2.4698 C   0  0  0  0  0  0  0  0  0  0  0  0
   -9.5649   -7.7222   -2.4256 C   0  0  0  0  0  0  0  0  0  0  0  0
   -9.1164  -11.6407   -1.8113 Cl  0  0  0  0  0  0  0  0  0  0  0  0
   -5.8211    2.7121   -1.0070 H   0  0  0  0  0  0  0  0  0  0  0  0
   -6.1125    1.5904    0.3440 H   0  0  0  0  0  0  0  0  0  0  0  0
   -4.6151    2.5512    0.2922 H   0  0  0  0  0  0  0  0  0  0  0  0
   -5.3976    0.3665   -1.6906 H   0  0  0  0  0  0  0  0  0  0  0  0
   -4.0623    2.1936   -2.7040 H   0  0  0  0  0  0  0  0  0  0  0  0
   -2.8562    2.0328   -1.4049 H   0  0  0  0  0  0  0  0  0  0  0  0
   -3.1006    0.7026   -2.5620 H   0  0  0  0  0  0  0  0  0  0  0  0
   -1.8493   -0.8859    1.0461 H   0  0  0  0  0  0  0  0  0  0  0  0
   -1.4312   -2.5862    1.3661 H   0  0  0  0  0  0  0  0  0  0  0  0
   -1.2866   -1.9291   -0.2818 H   0  0  0  0  0  0  0  0  0  0  0  0
   -5.0808   -2.8016    1.4750 H   0  0  0  0  0  0  0  0  0  0  0  0
   -3.5580   -3.0055    2.3739 H   0  0  0  0  0  0  0  0  0  0  0  0
   -4.2033   -1.3738    2.0747 H   0  0  0  0  0  0  0  0  0  0  0  0
   -5.6073   -2.3320   -0.0425 H   0  0  0  0  0  0  0  0  0  0  0  0
   -7.8068   -3.2562   -0.6276 H   0  0  0  0  0  0  0  0  0  0  0  0
   -5.9310   -6.9268   -1.8276 H   0  0  0  0  0  0  0  0  0  0  0  0
   -3.7369   -5.9866   -1.2471 H   0  0  0  0  0  0  0  0  0  0  0  0
   -6.8740   -7.6029   -0.3569 H   0  0  0  0  0  0  0  0  0  0  0  0
   -7.2041  -10.0379   -0.4421 H   0  0  0  0  0  0  0  0  0  0  0  0
  -10.5364   -9.5132   -3.0594 H   0  0  0  0  0  0  0  0  0  0  0  0
  -10.2286   -7.0751   -2.9798 H   0  0  0  0  0  0  0  0  0  0  0  0
  1  2  1  0  0  0  0
  1 26  1  0  0  0  0
  1 27  1  0  0  0  0
  1 28  1  0  0  0  0
  2  3  1  0  0  0  0
  2  4  1  0  0  0  0
  2 29  1  0  0  0  0
  3 30  1  0  0  0  0
  3 31  1  0  0  0  0
  3 32  1  0  0  0  0
  4  5  1  0  0  0  0
  5  6  2  0  0  0  0
  5  7  1  0  0  0  0
  7  8  1  0  0  0  0
  7  9  1  0  0  0  0
  7 10  1  0  0  0  0
  8 33  1  0  0  0  0
  8 34  1  0  0  0  0
  8 35  1  0  0  0  0
  9 36  1  0  0  0  0
  9 37  1  0  0  0  0
  9 38  1  0  0  0  0
 10 11  1  0  0  0  0
 11 16  2  0  0  0  0
 11 12  1  0  0  0  0
 12 13  2  0  0  0  0
 12 39  1  0  0  0  0
 13 14  1  0  0  0  0
 13 40  1  0  0  0  0
 14 15  2  0  0  0  0
 14 17  1  0  0  0  0
 15 16  1  0  0  0  0
 15 41  1  0  0  0  0
 16 42  1  0  0  0  0
 17 18  2  0  0  0  0
 17 19  1  0  0  0  0
 19 24  2  0  0  0  0
 19 20  1  0  0  0  0
 20 21  2  0  0  0  0
 20 43  1  0  0  0  0
 21 22  1  0  0  0  0
 21 44  1  0  0  0  0
 22 23  2  0  0  0  0
 22 25  1  0  0  0  0
 23 24  1  0  0  0  0
 23 45  1  0  0  0  0
 24 46  1  0  0  0  0
M  END
$$$$
