ZINC03079342
 OpenBabel08292219463D

 25 24  0  0  0  0  0  0  0  0999 V2000
    0.5385    1.3265   -0.0156 C   0  0  0  0  0  0  0  0  0  0  0  0
    0.0207   -0.0467    0.0478 N   0  3  0  0  0  0  0  0  0  0  0  0
    0.5070   -0.6974    1.2718 C   0  0  0  0  0  0  0  0  0  0  0  0
   -1.4480   -0.0161    0.0600 C   0  0  0  0  0  0  0  0  0  0  0  0
    0.4850   -0.7999   -1.1248 C   0  0  0  0  0  0  0  0  0  0  0  0
    2.0115   -0.7313   -1.2033 C   0  0  0  0  0  0  0  0  0  0  0  0
    2.5777   -1.4543   -0.1084 O   0  0  0  0  0  0  0  0  0  0  0  0
    3.9213   -1.4920   -0.0303 C   0  0  0  0  0  0  0  0  0  0  0  0
    4.5947   -0.9264   -0.8688 O   0  0  0  0  0  0  0  0  0  0  0  0
    4.5193   -2.1570    0.9780 N   0  0  0  0  0  0  0  0  0  0  0  0
    1.6283    1.3038   -0.0246 H   0  0  0  0  0  0  0  0  0  0  0  0
    0.1776    1.8093   -0.9238 H   0  0  0  0  0  0  0  0  0  0  0  0
    0.1939    1.8853    0.8545 H   0  0  0  0  0  0  0  0  0  0  0  0
    0.0211   -0.2500    2.1388 H   0  0  0  0  0  0  0  0  0  0  0  0
    0.2750   -1.7618    1.2342 H   0  0  0  0  0  0  0  0  0  0  0  0
    1.5859   -0.5633    1.3504 H   0  0  0  0  0  0  0  0  0  0  0  0
   -1.8089    0.4667   -0.8482 H   0  0  0  0  0  0  0  0  0  0  0  0
   -1.8322   -1.0351    0.1071 H   0  0  0  0  0  0  0  0  0  0  0  0
   -1.7926    0.5427    0.9301 H   0  0  0  0  0  0  0  0  0  0  0  0
    0.1722   -1.8402   -1.0357 H   0  0  0  0  0  0  0  0  0  0  0  0
    0.0550   -0.3672   -2.0281 H   0  0  0  0  0  0  0  0  0  0  0  0
    2.3472   -1.1718   -2.1420 H   0  0  0  0  0  0  0  0  0  0  0  0
    2.3314    0.3096   -1.1555 H   0  0  0  0  0  0  0  0  0  0  0  0
    3.9817   -2.6085    1.6473 H   0  0  0  0  0  0  0  0  0  0  0  0
    5.4873   -2.1841    1.0343 H   0  0  0  0  0  0  0  0  0  0  0  0
  1  2  1  0  0  0  0
  1 11  1  0  0  0  0
  1 12  1  0  0  0  0
  1 13  1  0  0  0  0
  2  3  1  0  0  0  0
  2  4  1  0  0  0  0
  2  5  1  0  0  0  0
  3 14  1  0  0  0  0
  3 15  1  0  0  0  0
  3 16  1  0  0  0  0
  4 17  1  0  0  0  0
  4 18  1  0  0  0  0
  4 19  1  0  0  0  0
  5  6  1  0  0  0  0
  5 20  1  0  0  0  0
  5 21  1  0  0  0  0
  6  7  1  0  0  0  0
  6 22  1  0  0  0  0
  6 23  1  0  0  0  0
  7  8  1  0  0  0  0
  8  9  2  0  0  0  0
  8 10  1  0  0  0  0
 10 24  1  0  0  0  0
 10 25  1  0  0  0  0
M  CHG  1   2   1
M  END
$$$$
