ZINC03876136
 OpenBabel08292219463D

 57 60  0  0  1  0  0  0  0  0999 V2000
   -0.3209    1.2659    0.5967 C   0  0  0  0  0  0  0  0  0  0  0  0
   -0.1655   -0.2546    0.5257 C   0  0  1  0  0  0  0  0  0  0  0  0
   -1.1430   -0.7333    0.5844 H   0  0  0  0  0  0  0  0  0  0  0  0
    0.5465   -0.6566   -0.7948 C   0  0  0  0  0  0  0  0  0  0  0  0
    1.4267   -1.8353   -0.3646 C   0  0  1  0  0  0  0  0  0  0  0  0
    0.8207   -2.7309   -0.2277 H   0  0  0  0  0  0  0  0  0  0  0  0
    2.6142   -2.1344   -1.2613 C   0  0  2  0  0  0  0  0  0  0  0  0
    3.2493   -1.2519   -1.3373 H   0  0  0  0  0  0  0  0  0  0  0  0
    2.1249   -2.5398   -2.6531 C   0  0  0  0  0  0  0  0  0  0  0  0
    3.3267   -2.8024   -3.5663 C   0  0  0  0  0  0  0  0  0  0  0  0
    4.2104   -3.8384   -2.8971 C   0  0  0  0  0  0  0  0  0  0  0  0
    4.5800   -4.9091   -3.5859 C   0  0  0  0  0  0  0  0  0  0  0  0
    5.4197   -5.9449   -2.9646 C   0  0  0  0  0  0  0  0  0  0  0  0
    5.7927   -6.9103   -3.6047 O   0  0  0  0  0  0  0  0  0  0  0  0
    5.7983   -5.7873   -1.5501 C   0  0  0  0  0  0  0  0  0  0  0  0
    5.4235   -4.7068   -0.8837 C   0  0  0  0  0  0  0  0  0  0  0  0
    4.6279   -3.5952   -1.4769 C   0  0  2  0  0  0  0  0  0  0  0  0
    3.4012   -3.2858   -0.6150 C   0  0  1  0  0  0  0  0  0  0  0  0
    3.8331   -2.9446    0.8079 C   0  0  2  0  0  0  0  0  0  0  0  0
    4.3026   -3.8201    1.2565 H   0  0  0  0  0  0  0  0  0  0  0  0
    2.6398   -2.5155    1.6762 C   0  0  0  0  0  0  0  0  0  0  0  0
    1.9742   -1.3375    0.9999 C   0  0  2  0  0  0  0  0  0  0  0  0
    0.7399   -0.7510    1.6804 C   0  0  1  0  0  0  0  0  0  0  0  0
    1.1311    0.4012    2.5694 C   0  0  0  0  0  0  0  0  0  0  0  0
    1.7428    1.3364    2.1118 O   0  0  0  0  0  0  0  0  0  0  0  0
    0.7588    0.3863    4.0297 C   0  0  0  0  0  0  0  0  0  0  0  0
    1.2371    1.5787    4.6553 O   0  0  0  0  0  0  0  0  0  0  0  0
    0.0669   -1.7573    2.4397 O   0  0  0  0  0  0  0  0  0  0  0  0
    3.0165   -0.2409    0.7718 C   0  0  0  0  0  0  0  0  0  0  0  0
    4.7830   -1.8780    0.7636 O   0  0  0  0  0  0  0  0  0  0  0  0
    2.5936   -4.4273   -0.5705 F   0  0  0  0  0  0  0  0  0  0  0  0
    5.4947   -2.3346   -1.4538 C   0  0  0  0  0  0  0  0  0  0  0  0
    0.6603    1.7351    0.5247 H   0  0  0  0  0  0  0  0  0  0  0  0
   -0.9476    1.6060   -0.2277 H   0  0  0  0  0  0  0  0  0  0  0  0
   -0.7860    1.5397    1.5437 H   0  0  0  0  0  0  0  0  0  0  0  0
   -0.1798   -0.9709   -1.5443 H   0  0  0  0  0  0  0  0  0  0  0  0
    1.1576    0.1647   -1.1690 H   0  0  0  0  0  0  0  0  0  0  0  0
    1.5229   -3.4452   -2.5765 H   0  0  0  0  0  0  0  0  0  0  0  0
    1.5192   -1.7366   -3.0728 H   0  0  0  0  0  0  0  0  0  0  0  0
    2.9818   -3.1796   -4.5290 H   0  0  0  0  0  0  0  0  0  0  0  0
    3.8873   -1.8790   -3.7115 H   0  0  0  0  0  0  0  0  0  0  0  0
    4.2616   -5.0221   -4.6117 H   0  0  0  0  0  0  0  0  0  0  0  0
    6.3805   -6.5520   -1.0574 H   0  0  0  0  0  0  0  0  0  0  0  0
    5.7118   -4.6260    0.1540 H   0  0  0  0  0  0  0  0  0  0  0  0
    1.9252   -3.3348    1.7563 H   0  0  0  0  0  0  0  0  0  0  0  0
    2.9873   -2.2264    2.6681 H   0  0  0  0  0  0  0  0  0  0  0  0
   -0.3255    0.3344    4.1277 H   0  0  0  0  0  0  0  0  0  0  0  0
    1.2091   -0.4821    4.5106 H   0  0  0  0  0  0  0  0  0  0  0  0
    1.0328    1.6370    5.5987 H   0  0  0  0  0  0  0  0  0  0  0  0
   -0.7482   -1.4524    2.8614 H   0  0  0  0  0  0  0  0  0  0  0  0
    2.5211    0.6633    0.4180 H   0  0  0  0  0  0  0  0  0  0  0  0
    3.5326   -0.0296    1.7084 H   0  0  0  0  0  0  0  0  0  0  0  0
    3.7383   -0.5751    0.0266 H   0  0  0  0  0  0  0  0  0  0  0  0
    5.1064   -1.6029    1.6324 H   0  0  0  0  0  0  0  0  0  0  0  0
    4.8560   -1.4533   -1.5112 H   0  0  0  0  0  0  0  0  0  0  0  0
    6.0704   -2.3065   -0.5286 H   0  0  0  0  0  0  0  0  0  0  0  0
    6.1754   -2.3461   -2.3050 H   0  0  0  0  0  0  0  0  0  0  0  0
  1  2  1  0  0  0  0
  1 33  1  0  0  0  0
  1 34  1  0  0  0  0
  1 35  1  0  0  0  0
  2  3  1  1  0  0  0
  2 23  1  0  0  0  0
  2  4  1  0  0  0  0
  4  5  1  0  0  0  0
  4 36  1  0  0  0  0
  4 37  1  0  0  0  0
  5  6  1  1  0  0  0
  5 22  1  0  0  0  0
  5  7  1  0  0  0  0
  7  8  1  6  0  0  0
  7 18  1  0  0  0  0
  7  9  1  0  0  0  0
  9 10  1  0  0  0  0
  9 38  1  0  0  0  0
  9 39  1  0  0  0  0
 10 11  1  0  0  0  0
 10 40  1  0  0  0  0
 10 41  1  0  0  0  0
 11 17  1  0  0  0  0
 11 12  2  0  0  0  0
 12 13  1  0  0  0  0
 12 42  1  0  0  0  0
 13 14  2  0  0  0  0
 13 15  1  0  0  0  0
 15 16  2  0  0  0  0
 15 43  1  0  0  0  0
 16 17  1  0  0  0  0
 16 44  1  0  0  0  0
 17 18  1  0  0  0  0
 17 32  1  1  0  0  0
 18 19  1  0  0  0  0
 18 31  1  1  0  0  0
 19 20  1  1  0  0  0
 19 21  1  0  0  0  0
 19 30  1  0  0  0  0
 21 22  1  0  0  0  0
 21 45  1  0  0  0  0
 21 46  1  0  0  0  0
 22 23  1  0  0  0  0
 22 29  1  6  0  0  0
 23 24  1  1  0  0  0
 23 28  1  0  0  0  0
 24 25  2  0  0  0  0
 24 26  1  0  0  0  0
 26 27  1  0  0  0  0
 26 47  1  0  0  0  0
 26 48  1  0  0  0  0
 27 49  1  0  0  0  0
 28 50  1  0  0  0  0
 29 51  1  0  0  0  0
 29 52  1  0  0  0  0
 29 53  1  0  0  0  0
 30 54  1  0  0  0  0
 32 55  1  0  0  0  0
 32 56  1  0  0  0  0
 32 57  1  0  0  0  0
M  END
$$$$
