ZINC04213946
 OpenBabel08292219463D

 55 58  0  0  1  0  0  0  0  0999 V2000
    5.9434   -2.5066   -4.1002 C   0  0  0  0  0  0  0  0  0  0  0  0
    4.9745   -1.9785   -3.2713 C   0  0  0  0  0  0  0  0  0  0  0  0
    3.7712   -2.6501   -3.0831 C   0  0  0  0  0  0  0  0  0  0  0  0
    3.5465   -3.8511   -3.7332 C   0  0  0  0  0  0  0  0  0  0  0  0
    4.5215   -4.3788   -4.5628 C   0  0  0  0  0  0  0  0  0  0  0  0
    5.7180   -3.7096   -4.7472 C   0  0  0  0  0  0  0  0  0  0  0  0
    6.6655   -4.2291   -5.5581 F   0  0  0  0  0  0  0  0  0  0  0  0
    2.2536   -4.6075   -3.5616 C   0  0  0  0  0  0  0  0  0  0  0  0
    1.5268   -4.1085   -2.3102 C   0  0  0  0  0  0  0  0  0  0  0  0
    1.5006   -2.5752   -2.3480 C   0  0  2  0  0  0  0  0  0  0  0  0
    1.0550   -2.2380   -3.2838 H   0  0  0  0  0  0  0  0  0  0  0  0
    2.8441   -2.0993   -2.2561 O   0  0  0  0  0  0  0  0  0  0  0  0
    0.6842   -2.0445   -1.1679 C   0  0  1  0  0  0  0  0  0  0  0  0
    1.1274   -2.3911   -0.2343 H   0  0  0  0  0  0  0  0  0  0  0  0
    0.6835   -0.5147   -1.1950 C   0  0  0  0  0  0  0  0  0  0  0  0
   -0.0178    1.4648    0.0101 C   0  0  0  0  0  0  0  0  0  0  0  0
   -0.7340    1.9582    1.2689 C   0  0  1  0  0  0  0  0  0  0  0  0
   -0.2068    1.5971    2.1520 H   0  0  0  0  0  0  0  0  0  0  0  0
   -0.7547    3.4880    1.2773 C   0  0  2  0  0  0  0  0  0  0  0  0
    0.2641    3.8686    1.3497 H   0  0  0  0  0  0  0  0  0  0  0  0
   -1.5788    3.9871    2.4711 C   0  0  0  0  0  0  0  0  0  0  0  0
   -1.4868    5.5144    2.5139 C   0  0  0  0  0  0  0  0  0  0  0  0
   -1.7571    6.0783    1.1420 C   0  0  0  0  0  0  0  0  0  0  0  0
   -2.0904    7.4178    1.0263 C   0  0  0  0  0  0  0  0  0  0  0  0
   -2.3414    7.9694   -0.2167 C   0  0  0  0  0  0  0  0  0  0  0  0
   -2.2591    7.1808   -1.3520 C   0  0  0  0  0  0  0  0  0  0  0  0
   -1.9284    5.8460   -1.2405 C   0  0  0  0  0  0  0  0  0  0  0  0
   -1.6775    5.2881    0.0091 C   0  0  0  0  0  0  0  0  0  0  0  0
   -1.3641    3.9675    0.0779 O   0  0  0  0  0  0  0  0  0  0  0  0
   -2.6671    9.2762   -0.3233 F   0  0  0  0  0  0  0  0  0  0  0  0
   -2.0746    1.4636    1.2790 O   0  0  0  0  0  0  0  0  0  0  0  0
   -0.6588   -2.5232   -1.2642 O   0  0  0  0  0  0  0  0  0  0  0  0
    6.8764   -1.9820   -4.2440 H   0  0  0  0  0  0  0  0  0  0  0  0
    5.1512   -1.0398   -2.7672 H   0  0  0  0  0  0  0  0  0  0  0  0
    4.3468   -5.3170   -5.0685 H   0  0  0  0  0  0  0  0  0  0  0  0
    1.6218   -4.4488   -4.4355 H   0  0  0  0  0  0  0  0  0  0  0  0
    2.4669   -5.6712   -3.4566 H   0  0  0  0  0  0  0  0  0  0  0  0
    2.0563   -4.4452   -1.4190 H   0  0  0  0  0  0  0  0  0  0  0  0
    0.5070   -4.4932   -2.2997 H   0  0  0  0  0  0  0  0  0  0  0  0
    0.1612   -0.1674   -2.0864 H   0  0  0  0  0  0  0  0  0  0  0  0
    1.7110   -0.1512   -1.2111 H   0  0  0  0  0  0  0  0  0  0  0  0
    1.0047    1.8421    0.0024 H   0  0  0  0  0  0  0  0  0  0  0  0
   -0.5450    1.8259   -0.8730 H   0  0  0  0  0  0  0  0  0  0  0  0
   -2.6192    3.6849    2.3514 H   0  0  0  0  0  0  0  0  0  0  0  0
   -1.1782    3.5689    3.3946 H   0  0  0  0  0  0  0  0  0  0  0  0
   -2.2236    5.9025    3.2172 H   0  0  0  0  0  0  0  0  0  0  0  0
   -0.4879    5.8087    2.8359 H   0  0  0  0  0  0  0  0  0  0  0  0
   -2.1550    8.0340    1.9109 H   0  0  0  0  0  0  0  0  0  0  0  0
   -2.4538    7.6101   -2.3237 H   0  0  0  0  0  0  0  0  0  0  0  0
   -1.8644    5.2317   -2.1265 H   0  0  0  0  0  0  0  0  0  0  0  0
   -2.6038    1.7459    0.5205 H   0  0  0  0  0  0  0  0  0  0  0  0
   -1.1159   -2.2524   -2.0722 H   0  0  0  0  0  0  0  0  0  0  0  0
   -0.0022   -0.0103    0.0096 N   0  3  0  0  0  0  0  0  0  0  0  0
    0.4921   -0.3440    0.8454 H   0  0  0  0  0  0  0  0  0  0  0  0
   -0.9677   -0.3592    0.0209 H   0  0  0  0  0  0  0  0  0  0  0  0
  1  6  2  0  0  0  0
  1  2  1  0  0  0  0
  1 33  1  0  0  0  0
  2  3  2  0  0  0  0
  2 34  1  0  0  0  0
  3 12  1  0  0  0  0
  3  4  1  0  0  0  0
  4  5  2  0  0  0  0
  4  8  1  0  0  0  0
  5  6  1  0  0  0  0
  5 35  1  0  0  0  0
  6  7  1  0  0  0  0
  8  9  1  0  0  0  0
  8 36  1  0  0  0  0
  8 37  1  0  0  0  0
  9 10  1  0  0  0  0
  9 38  1  0  0  0  0
  9 39  1  0  0  0  0
 10 11  1  6  0  0  0
 10 12  1  0  0  0  0
 10 13  1  0  0  0  0
 13 14  1  1  0  0  0
 13 15  1  0  0  0  0
 13 32  1  0  0  0  0
 15 40  1  0  0  0  0
 15 41  1  0  0  0  0
 15 53  1  0  0  0  0
 16 17  1  0  0  0  0
 16 42  1  0  0  0  0
 16 43  1  0  0  0  0
 16 53  1  0  0  0  0
 17 18  1  1  0  0  0
 17 19  1  0  0  0  0
 17 31  1  0  0  0  0
 19 20  1  1  0  0  0
 19 29  1  0  0  0  0
 19 21  1  0  0  0  0
 21 22  1  0  0  0  0
 21 44  1  0  0  0  0
 21 45  1  0  0  0  0
 22 23  1  0  0  0  0
 22 46  1  0  0  0  0
 22 47  1  0  0  0  0
 23 28  2  0  0  0  0
 23 24  1  0  0  0  0
 24 25  2  0  0  0  0
 24 48  1  0  0  0  0
 25 26  1  0  0  0  0
 25 30  1  0  0  0  0
 26 27  2  0  0  0  0
 26 49  1  0  0  0  0
 27 28  1  0  0  0  0
 27 50  1  0  0  0  0
 28 29  1  0  0  0  0
 31 51  1  0  0  0  0
 32 52  1  0  0  0  0
 53 54  1  0  0  0  0
 53 55  1  0  0  0  0
M  CHG  1  53   1
M  END
$$$$
