ZINC00000669
 OpenBabel08292219463D

 49 51  0  0  1  0  0  0  0  0999 V2000
   -1.0816    0.0183    0.2498 C   0  0  0  0  0  0  0  0  0  0  0  0
   -0.6834   -1.4573    0.1785 C   0  0  0  0  0  0  0  0  0  0  0  0
    0.1528   -1.6930   -1.0529 C   0  0  0  0  0  0  0  0  0  0  0  0
    0.4055   -0.7711   -1.8003 O   0  0  0  0  0  0  0  0  0  0  0  0
    0.6610   -3.0366   -1.3480 C   0  0  0  0  0  0  0  0  0  0  0  0
    0.3654   -4.1031   -0.4894 C   0  0  0  0  0  0  0  0  0  0  0  0
    0.8428   -5.3614   -0.7735 C   0  0  0  0  0  0  0  0  0  0  0  0
    1.6200   -5.5808   -1.9084 C   0  0  0  0  0  0  0  0  0  0  0  0
    1.9248   -4.5240   -2.7697 C   0  0  0  0  0  0  0  0  0  0  0  0
    1.4385   -3.2576   -2.4923 C   0  0  0  0  0  0  0  0  0  0  0  0
    2.7098   -4.7061   -3.9061 N   0  0  0  0  0  0  0  0  0  0  0  0
    2.8627   -5.9137   -4.5812 C   0  0  0  0  0  0  0  0  0  0  0  0
    3.2130   -5.8899   -5.9274 C   0  0  0  0  0  0  0  0  0  0  0  0
    3.3777   -7.0702   -6.6264 C   0  0  0  0  0  0  0  0  0  0  0  0
    3.1963   -8.2852   -5.9928 C   0  0  0  0  0  0  0  0  0  0  0  0
    2.8461   -8.3209   -4.6558 C   0  0  0  0  0  0  0  0  0  0  0  0
    2.6749   -7.1393   -3.9484 C   0  0  0  0  0  0  0  0  0  0  0  0
    2.2131   -7.2043   -2.2503 S   0  0  0  0  0  0  0  0  0  0  0  0
    3.4275   -3.5408   -4.4288 C   0  0  0  0  0  0  0  0  0  0  0  0
    4.8536   -3.5294   -3.8747 C   0  0  2  0  0  0  0  0  0  0  0  0
    5.3342   -4.4841   -4.0886 H   0  0  0  0  0  0  0  0  0  0  0  0
    4.8110   -3.3077   -2.3614 C   0  0  0  0  0  0  0  0  0  0  0  0
    5.6161   -2.4448   -4.5072 N   0  3  0  0  0  0  0  0  0  0  0  0
    6.9787   -2.4198   -3.9589 C   0  0  0  0  0  0  0  0  0  0  0  0
    5.6759   -2.6695   -5.9577 C   0  0  0  0  0  0  0  0  0  0  0  0
   -0.1840    0.6350    0.2965 H   0  0  0  0  0  0  0  0  0  0  0  0
   -1.6580    0.2823   -0.6369 H   0  0  0  0  0  0  0  0  0  0  0  0
   -1.6864    0.1888    1.1404 H   0  0  0  0  0  0  0  0  0  0  0  0
   -0.1070   -1.7213    1.0651 H   0  0  0  0  0  0  0  0  0  0  0  0
   -1.5810   -2.0739    0.1317 H   0  0  0  0  0  0  0  0  0  0  0  0
   -0.2351   -3.9379    0.3929 H   0  0  0  0  0  0  0  0  0  0  0  0
    0.6139   -6.1842   -0.1124 H   0  0  0  0  0  0  0  0  0  0  0  0
    1.6626   -2.4370   -3.1578 H   0  0  0  0  0  0  0  0  0  0  0  0
    3.3565   -4.9441   -6.4286 H   0  0  0  0  0  0  0  0  0  0  0  0
    3.6488   -7.0435   -7.6715 H   0  0  0  0  0  0  0  0  0  0  0  0
    3.3278   -9.2060   -6.5418 H   0  0  0  0  0  0  0  0  0  0  0  0
    2.7049   -9.2704   -4.1610 H   0  0  0  0  0  0  0  0  0  0  0  0
    3.4610   -3.5929   -5.5171 H   0  0  0  0  0  0  0  0  0  0  0  0
    2.9121   -2.6299   -4.1243 H   0  0  0  0  0  0  0  0  0  0  0  0
    4.3304   -2.3531   -2.1475 H   0  0  0  0  0  0  0  0  0  0  0  0
    4.2452   -4.1125   -1.8921 H   0  0  0  0  0  0  0  0  0  0  0  0
    5.8270   -3.2996   -1.9666 H   0  0  0  0  0  0  0  0  0  0  0  0
    6.9343   -2.2530   -2.8827 H   0  0  0  0  0  0  0  0  0  0  0  0
    7.4684   -3.3728   -4.1590 H   0  0  0  0  0  0  0  0  0  0  0  0
    7.5445   -1.6150   -4.4283 H   0  0  0  0  0  0  0  0  0  0  0  0
    4.6740   -2.5898   -6.3794 H   0  0  0  0  0  0  0  0  0  0  0  0
    6.3232   -1.9212   -6.4149 H   0  0  0  0  0  0  0  0  0  0  0  0
    6.0750   -3.6645   -6.1550 H   0  0  0  0  0  0  0  0  0  0  0  0
    5.1628   -1.5626   -4.3220 H   0  0  0  0  0  0  0  0  0  0  0  0
  1  2  1  0  0  0  0
  1 26  1  0  0  0  0
  1 27  1  0  0  0  0
  1 28  1  0  0  0  0
  2  3  1  0  0  0  0
  2 29  1  0  0  0  0
  2 30  1  0  0  0  0
  3  4  2  0  0  0  0
  3  5  1  0  0  0  0
  5 10  2  0  0  0  0
  5  6  1  0  0  0  0
  6  7  2  0  0  0  0
  6 31  1  0  0  0  0
  7  8  1  0  0  0  0
  7 32  1  0  0  0  0
  8 18  1  0  0  0  0
  8  9  2  0  0  0  0
  9 10  1  0  0  0  0
  9 11  1  0  0  0  0
 10 33  1  0  0  0  0
 11 12  1  0  0  0  0
 11 19  1  0  0  0  0
 12 17  2  0  0  0  0
 12 13  1  0  0  0  0
 13 14  2  0  0  0  0
 13 34  1  0  0  0  0
 14 15  1  0  0  0  0
 14 35  1  0  0  0  0
 15 16  2  0  0  0  0
 15 36  1  0  0  0  0
 16 17  1  0  0  0  0
 16 37  1  0  0  0  0
 17 18  1  0  0  0  0
 19 20  1  0  0  0  0
 19 38  1  0  0  0  0
 19 39  1  0  0  0  0
 20 21  1  6  0  0  0
 20 22  1  0  0  0  0
 20 23  1  0  0  0  0
 22 40  1  0  0  0  0
 22 41  1  0  0  0  0
 22 42  1  0  0  0  0
 23 24  1  0  0  0  0
 23 25  1  0  0  0  0
 23 49  1  0  0  0  0
 24 43  1  0  0  0  0
 24 44  1  0  0  0  0
 24 45  1  0  0  0  0
 25 46  1  0  0  0  0
 25 47  1  0  0  0  0
 25 48  1  0  0  0  0
M  CHG  1  23   1
M  END
$$$$
