ZINC03813024
 OpenBabel08292219463D

 66 69  0  0  1  0  0  0  0  0999 V2000
    9.8301   -6.6544   -3.9624 C   0  0  0  0  0  0  0  0  0  0  0  0
    8.5334   -7.0202   -3.3871 N   0  0  0  0  0  0  0  0  0  0  0  0
    7.4783   -7.5639   -4.2457 C   0  0  0  0  0  0  0  0  0  0  0  0
    8.2604   -6.8190   -1.7662 S   0  0  0  0  0  0  0  0  0  0  0  0
    7.2249   -7.7259   -1.4132 O   0  0  0  0  0  0  0  0  0  0  0  0
    9.5334   -6.8332   -1.1351 O   0  0  0  0  0  0  0  0  0  0  0  0
    7.6068   -5.1977   -1.5453 C   0  0  0  0  0  0  0  0  0  0  0  0
    8.4622   -4.1336   -1.3309 C   0  0  0  0  0  0  0  0  0  0  0  0
    7.9505   -2.8603   -1.1601 C   0  0  0  0  0  0  0  0  0  0  0  0
    6.5798   -2.6487   -1.2020 C   0  0  0  0  0  0  0  0  0  0  0  0
    5.7144   -3.7184   -1.4135 C   0  0  0  0  0  0  0  0  0  0  0  0
    6.2409   -4.9935   -1.5927 C   0  0  0  0  0  0  0  0  0  0  0  0
    4.3324   -3.5511   -1.4491 N   0  0  0  0  0  0  0  0  0  0  0  0
    3.6824   -2.3601   -1.7623 C   0  0  0  0  0  0  0  0  0  0  0  0
    2.3823   -2.4144   -2.2544 C   0  0  0  0  0  0  0  0  0  0  0  0
    1.7065   -1.2513   -2.5707 C   0  0  0  0  0  0  0  0  0  0  0  0
    2.3173   -0.0234   -2.3999 C   0  0  0  0  0  0  0  0  0  0  0  0
    3.6100    0.0425   -1.9131 C   0  0  0  0  0  0  0  0  0  0  0  0
    4.2955   -1.1215   -1.5959 C   0  0  0  0  0  0  0  0  0  0  0  0
    5.9460   -1.0192   -0.9882 S   0  0  0  0  0  0  0  0  0  0  0  0
    3.5004   -4.7150   -1.1342 C   0  0  0  0  0  0  0  0  0  0  0  0
    3.2011   -5.4905   -2.4186 C   0  0  0  0  0  0  0  0  0  0  0  0
    2.3321   -6.7061   -2.0897 C   0  0  0  0  0  0  0  0  0  0  0  0
    2.0447   -7.4507   -3.3229 N   0  3  2  0  0  0  0  0  0  0  0  0
    1.2362   -6.6160   -4.2196 C   0  0  0  0  0  0  0  0  0  0  0  0
    1.0022   -7.3558   -5.5385 C   0  0  0  0  0  0  0  0  0  0  0  0
    0.2651   -8.6684   -5.2574 C   0  0  2  0  0  0  0  0  0  0  0  0
    1.0822   -9.4986   -4.2633 C   0  0  0  0  0  0  0  0  0  0  0  0
    1.3132   -8.6794   -2.9916 C   0  0  0  0  0  0  0  0  0  0  0  0
    0.0980   -9.4508   -6.5616 C   0  0  0  0  0  0  0  0  0  0  0  0
   -0.7460  -10.7003   -6.3021 C   0  0  0  0  0  0  0  0  0  0  0  0
   -0.9021  -11.4310   -7.5202 O   0  0  0  0  0  0  0  0  0  0  0  0
    9.8051   -5.6125   -4.2816 H   0  0  0  0  0  0  0  0  0  0  0  0
   10.6104   -6.7862   -3.2128 H   0  0  0  0  0  0  0  0  0  0  0  0
   10.0397   -7.2925   -4.8210 H   0  0  0  0  0  0  0  0  0  0  0  0
    7.8396   -7.6227   -5.2724 H   0  0  0  0  0  0  0  0  0  0  0  0
    7.2053   -8.5606   -3.8990 H   0  0  0  0  0  0  0  0  0  0  0  0
    6.6049   -6.9130   -4.2046 H   0  0  0  0  0  0  0  0  0  0  0  0
    9.5293   -4.2964   -1.2963 H   0  0  0  0  0  0  0  0  0  0  0  0
    8.6192   -2.0288   -0.9935 H   0  0  0  0  0  0  0  0  0  0  0  0
    5.5786   -5.8288   -1.7660 H   0  0  0  0  0  0  0  0  0  0  0  0
    1.8988   -3.3705   -2.3903 H   0  0  0  0  0  0  0  0  0  0  0  0
    0.6977   -1.3021   -2.9530 H   0  0  0  0  0  0  0  0  0  0  0  0
    1.7857    0.8837   -2.6467 H   0  0  0  0  0  0  0  0  0  0  0  0
    4.0872    1.0022   -1.7798 H   0  0  0  0  0  0  0  0  0  0  0  0
    4.0299   -5.3615   -0.4344 H   0  0  0  0  0  0  0  0  0  0  0  0
    2.5650   -4.3819   -0.6845 H   0  0  0  0  0  0  0  0  0  0  0  0
    2.6715   -4.8440   -3.1184 H   0  0  0  0  0  0  0  0  0  0  0  0
    4.1365   -5.8236   -2.8683 H   0  0  0  0  0  0  0  0  0  0  0  0
    2.8616   -7.3526   -1.3899 H   0  0  0  0  0  0  0  0  0  0  0  0
    1.3967   -6.3730   -1.6400 H   0  0  0  0  0  0  0  0  0  0  0  0
    0.2768   -6.4015   -3.7487 H   0  0  0  0  0  0  0  0  0  0  0  0
    1.7606   -5.6809   -4.4161 H   0  0  0  0  0  0  0  0  0  0  0  0
    0.4002   -6.7352   -6.2021 H   0  0  0  0  0  0  0  0  0  0  0  0
    1.9610   -7.5707   -6.0103 H   0  0  0  0  0  0  0  0  0  0  0  0
   -0.7152   -8.4522   -4.8325 H   0  0  0  0  0  0  0  0  0  0  0  0
    0.5374  -10.4095   -4.0155 H   0  0  0  0  0  0  0  0  0  0  0  0
    2.0427   -9.7579   -4.7087 H   0  0  0  0  0  0  0  0  0  0  0  0
    1.8945   -9.2676   -2.2816 H   0  0  0  0  0  0  0  0  0  0  0  0
    0.3522   -8.4208   -2.5470 H   0  0  0  0  0  0  0  0  0  0  0  0
   -0.3999   -8.8230   -7.3006 H   0  0  0  0  0  0  0  0  0  0  0  0
    1.0780   -9.7457   -6.9365 H   0  0  0  0  0  0  0  0  0  0  0  0
   -0.2481  -11.3280   -5.5631 H   0  0  0  0  0  0  0  0  0  0  0  0
   -1.7261  -10.4054   -5.9272 H   0  0  0  0  0  0  0  0  0  0  0  0
   -1.4278  -12.2376   -7.4304 H   0  0  0  0  0  0  0  0  0  0  0  0
    2.9119   -7.6897   -3.7801 H   0  0  0  0  0  0  0  0  0  0  0  0
  1  2  1  0  0  0  0
  1 33  1  0  0  0  0
  1 34  1  0  0  0  0
  1 35  1  0  0  0  0
  2  3  1  0  0  0  0
  2  4  1  0  0  0  0
  3 36  1  0  0  0  0
  3 37  1  0  0  0  0
  3 38  1  0  0  0  0
  4  5  2  0  0  0  0
  4  6  2  0  0  0  0
  4  7  1  0  0  0  0
  7 12  2  0  0  0  0
  7  8  1  0  0  0  0
  8  9  2  0  0  0  0
  8 39  1  0  0  0  0
  9 10  1  0  0  0  0
  9 40  1  0  0  0  0
 10 20  1  0  0  0  0
 10 11  2  0  0  0  0
 11 12  1  0  0  0  0
 11 13  1  0  0  0  0
 12 41  1  0  0  0  0
 13 14  1  0  0  0  0
 13 21  1  0  0  0  0
 14 19  2  0  0  0  0
 14 15  1  0  0  0  0
 15 16  2  0  0  0  0
 15 42  1  0  0  0  0
 16 17  1  0  0  0  0
 16 43  1  0  0  0  0
 17 18  2  0  0  0  0
 17 44  1  0  0  0  0
 18 19  1  0  0  0  0
 18 45  1  0  0  0  0
 19 20  1  0  0  0  0
 21 22  1  0  0  0  0
 21 46  1  0  0  0  0
 21 47  1  0  0  0  0
 22 23  1  0  0  0  0
 22 48  1  0  0  0  0
 22 49  1  0  0  0  0
 23 24  1  0  0  0  0
 23 50  1  0  0  0  0
 23 51  1  0  0  0  0
 24 29  1  0  0  0  0
 24 25  1  0  0  0  0
 24 66  1  6  0  0  0
 25 26  1  0  0  0  0
 25 52  1  0  0  0  0
 25 53  1  0  0  0  0
 26 27  1  0  0  0  0
 26 54  1  0  0  0  0
 26 55  1  0  0  0  0
 27 28  1  0  0  0  0
 27 30  1  0  0  0  0
 27 56  1  1  0  0  0
 28 29  1  0  0  0  0
 28 57  1  0  0  0  0
 28 58  1  0  0  0  0
 29 59  1  0  0  0  0
 29 60  1  0  0  0  0
 30 31  1  0  0  0  0
 30 61  1  0  0  0  0
 30 62  1  0  0  0  0
 31 32  1  0  0  0  0
 31 63  1  0  0  0  0
 31 64  1  0  0  0  0
 32 65  1  0  0  0  0
M  CHG  1  24   1
M  END
$$$$
