ZINC11680067
 OpenBabel08292219463D

 52 55  0  0  1  0  0  0  0  0999 V2000
   -0.3018    1.6691    0.0547 C   0  0  0  0  0  0  0  0  0  0  0  0
   -0.1903    0.1467   -0.0488 C   0  0  0  0  0  0  0  0  0  0  0  0
   -1.5707   -0.4808    0.1553 C   0  0  2  0  0  0  0  0  0  0  0  0
   -2.1619   -0.0117    1.4751 C   0  0  0  0  0  0  0  0  0  0  0  0
   -1.2043   -0.4737    2.5643 C   0  0  0  0  0  0  0  0  0  0  0  0
   -0.7858    0.3677    3.4770 C   0  0  0  0  0  0  0  0  0  0  0  0
   -0.7424   -1.9083    2.5834 C   0  0  1  0  0  0  0  0  0  0  0  0
   -1.5628   -2.5463    2.9120 H   0  0  0  0  0  0  0  0  0  0  0  0
   -0.2923   -2.3430    1.1788 C   0  0  2  0  0  0  0  0  0  0  0  0
    0.6040   -1.7918    0.8945 H   0  0  0  0  0  0  0  0  0  0  0  0
   -1.4438   -2.0272    0.2238 C   0  0  2  0  0  0  0  0  0  0  0  0
   -2.3764   -2.4718    0.5712 H   0  0  0  0  0  0  0  0  0  0  0  0
   -1.1749   -2.3847   -1.2439 C   0  0  0  0  0  0  0  0  0  0  0  0
   -2.1449   -1.4517   -2.0166 C   0  0  0  0  0  0  0  0  0  0  0  0
   -2.4340   -0.2513   -1.0830 C   0  0  1  0  0  0  0  0  0  0  0  0
   -3.8585   -0.2253   -0.7131 C   0  0  0  0  0  0  0  0  0  0  0  0
   -4.9946   -0.2045   -0.4180 C   0  0  0  0  0  0  0  0  0  0  0  0
   -2.0658    0.9724   -1.7225 O   0  0  0  0  0  0  0  0  0  0  0  0
    0.0131   -3.8409    1.2067 C   0  0  0  0  0  0  0  0  0  0  0  0
    1.2251   -4.0784    2.1127 C   0  0  0  0  0  0  0  0  0  0  0  0
    0.9591   -3.4655    3.4754 C   0  0  0  0  0  0  0  0  0  0  0  0
    1.2185   -4.2112    4.5493 C   0  0  0  0  0  0  0  0  0  0  0  0
    0.9958   -3.6690    5.8937 C   0  0  0  0  0  0  0  0  0  0  0  0
    0.8514   -4.3916    6.8576 O   0  0  0  0  0  0  0  0  0  0  0  0
    0.9559   -2.1582    6.0162 C   0  0  0  0  0  0  0  0  0  0  0  0
   -0.0000   -1.6389    4.9431 C   0  0  0  0  0  0  0  0  0  0  0  0
    0.4409   -2.0727    3.5413 C   0  0  2  0  0  0  0  0  0  0  0  0
    1.2364   -1.4030    3.2145 H   0  0  0  0  0  0  0  0  0  0  0  0
    0.6938    2.1103    0.0088 H   0  0  0  0  0  0  0  0  0  0  0  0
   -0.9047    2.0462   -0.7714 H   0  0  0  0  0  0  0  0  0  0  0  0
   -0.7740    1.9354    1.0003 H   0  0  0  0  0  0  0  0  0  0  0  0
    0.1896   -0.1237   -1.0340 H   0  0  0  0  0  0  0  0  0  0  0  0
    0.4926   -0.2205    0.7174 H   0  0  0  0  0  0  0  0  0  0  0  0
   -2.2414    1.0754    1.4837 H   0  0  0  0  0  0  0  0  0  0  0  0
   -3.1437   -0.4606    1.6255 H   0  0  0  0  0  0  0  0  0  0  0  0
   -1.4132    1.1935    3.7785 H   0  0  0  0  0  0  0  0  0  0  0  0
    0.1866    0.2356    3.9279 H   0  0  0  0  0  0  0  0  0  0  0  0
   -0.1399   -2.1691   -1.5094 H   0  0  0  0  0  0  0  0  0  0  0  0
   -1.4127   -3.4310   -1.4353 H   0  0  0  0  0  0  0  0  0  0  0  0
   -1.6761   -1.1048   -2.9375 H   0  0  0  0  0  0  0  0  0  0  0  0
   -3.0707   -1.9803   -2.2437 H   0  0  0  0  0  0  0  0  0  0  0  0
   -6.0108   -0.1859   -0.1542 H   0  0  0  0  0  0  0  0  0  0  0  0
   -2.5807    1.1717   -2.5164 H   0  0  0  0  0  0  0  0  0  0  0  0
   -0.8480   -4.3823    1.5985 H   0  0  0  0  0  0  0  0  0  0  0  0
    0.2374   -4.1872    0.1978 H   0  0  0  0  0  0  0  0  0  0  0  0
    1.3935   -5.1497    2.2221 H   0  0  0  0  0  0  0  0  0  0  0  0
    2.1066   -3.6140    1.6706 H   0  0  0  0  0  0  0  0  0  0  0  0
    1.5939   -5.2167    4.4292 H   0  0  0  0  0  0  0  0  0  0  0  0
    0.5926   -1.8759    7.0043 H   0  0  0  0  0  0  0  0  0  0  0  0
    1.9524   -1.7469    5.8553 H   0  0  0  0  0  0  0  0  0  0  0  0
   -0.9990   -2.0288    5.1383 H   0  0  0  0  0  0  0  0  0  0  0  0
   -0.0294   -0.5503    4.9900 H   0  0  0  0  0  0  0  0  0  0  0  0
  1  2  1  0  0  0  0
  1 29  1  0  0  0  0
  1 30  1  0  0  0  0
  1 31  1  0  0  0  0
  2 32  1  0  0  0  0
  2 33  1  0  0  0  0
  3  2  1  6  0  0  0
  3 11  1  0  0  0  0
  3 15  1  0  0  0  0
  3  4  1  0  0  0  0
  4  5  1  0  0  0  0
  4 34  1  0  0  0  0
  4 35  1  0  0  0  0
  5  6  2  0  0  0  0
  5  7  1  0  0  0  0
  6 36  1  0  0  0  0
  6 37  1  0  0  0  0
  7  8  1  1  0  0  0
  7 27  1  0  0  0  0
  7  9  1  0  0  0  0
  9 10  1  6  0  0  0
  9 11  1  0  0  0  0
  9 19  1  0  0  0  0
 11 12  1  1  0  0  0
 11 13  1  0  0  0  0
 13 14  1  0  0  0  0
 13 38  1  0  0  0  0
 13 39  1  0  0  0  0
 14 15  1  0  0  0  0
 14 40  1  0  0  0  0
 14 41  1  0  0  0  0
 15 16  1  1  0  0  0
 15 18  1  0  0  0  0
 16 17  3  0  0  0  0
 17 42  1  0  0  0  0
 18 43  1  0  0  0  0
 19 20  1  0  0  0  0
 19 44  1  0  0  0  0
 19 45  1  0  0  0  0
 20 21  1  0  0  0  0
 20 46  1  0  0  0  0
 20 47  1  0  0  0  0
 21 27  1  0  0  0  0
 21 22  2  0  0  0  0
 22 23  1  0  0  0  0
 22 48  1  0  0  0  0
 23 24  2  0  0  0  0
 23 25  1  0  0  0  0
 25 26  1  0  0  0  0
 25 49  1  0  0  0  0
 25 50  1  0  0  0  0
 26 27  1  0  0  0  0
 26 51  1  0  0  0  0
 26 52  1  0  0  0  0
 27 28  1  6  0  0  0
M  END
$$$$
