ZINC00608204
 OpenBabel08292219463D

 49 51  0  0  1  0  0  0  0  0999 V2000
   -0.0202    1.3755    0.0151 C   0  0  0  0  0  0  0  0  0  0  0  0
    1.1638    2.0911   -0.0035 C   0  0  0  0  0  0  0  0  0  0  0  0
    2.3737    1.4284   -0.0229 C   0  0  0  0  0  0  0  0  0  0  0  0
    2.4015    0.0329   -0.0237 C   0  0  0  0  0  0  0  0  0  0  0  0
    1.2035   -0.6829   -0.0050 C   0  0  0  0  0  0  0  0  0  0  0  0
    0.0004   -0.0080    0.0143 C   0  0  0  0  0  0  0  0  0  0  0  0
    3.6944   -0.6839   -0.0450 C   0  0  0  0  0  0  0  0  0  0  0  0
    4.7362   -0.0578   -0.0617 O   0  0  0  0  0  0  0  0  0  0  0  0
    3.7179   -2.0314   -0.0457 N   0  0  0  0  0  0  0  0  0  0  0  0
    4.9991   -2.7417   -0.0668 C   0  0  1  0  0  0  0  0  0  0  0  0
    5.7153   -2.1814   -0.6678 H   0  0  0  0  0  0  0  0  0  0  0  0
    5.5294   -2.8794    1.3618 C   0  0  0  0  0  0  0  0  0  0  0  0
    5.8401   -1.5130    1.9162 C   0  0  0  0  0  0  0  0  0  0  0  0
    7.0986   -0.9674    1.7422 C   0  0  0  0  0  0  0  0  0  0  0  0
    7.3861    0.2848    2.2498 C   0  0  0  0  0  0  0  0  0  0  0  0
    6.4107    0.9952    2.9343 C   0  0  0  0  0  0  0  0  0  0  0  0
    5.1486    0.4458    3.1071 C   0  0  0  0  0  0  0  0  0  0  0  0
    4.8645   -0.8046    2.5930 C   0  0  0  0  0  0  0  0  0  0  0  0
    6.6912    2.2271    3.4350 O   0  0  0  0  0  0  0  0  0  0  0  0
    4.8044   -4.1113   -0.6646 C   0  0  0  0  0  0  0  0  0  0  0  0
    3.7039   -4.4598   -1.0364 O   0  0  0  0  0  0  0  0  0  0  0  0
    5.8533   -4.9489   -0.7859 N   0  0  0  0  0  0  0  0  0  0  0  0
    5.6572   -6.2483   -1.2489 C   0  0  0  0  0  0  0  0  0  0  0  0
    4.6948   -6.5005   -2.2223 C   0  0  0  0  0  0  0  0  0  0  0  0
    4.4988   -7.7779   -2.6805 C   0  0  0  0  0  0  0  0  0  0  0  0
    5.2682   -8.8285   -2.1685 C   0  0  0  0  0  0  0  0  0  0  0  0
    6.2350   -8.5708   -1.1905 C   0  0  0  0  0  0  0  0  0  0  0  0
    6.4282   -7.2899   -0.7409 C   0  0  0  0  0  0  0  0  0  0  0  0
    5.0606  -10.2017   -2.6574 C   0  0  0  0  0  0  0  0  0  0  0  0
    4.2146  -10.4253   -3.5123 O   0  0  0  0  0  0  0  0  0  0  0  0
    5.7342  -11.1191   -2.2087 O   0  0  0  0  0  1  0  0  0  0  0  0
   -0.9646    1.8990    0.0348 H   0  0  0  0  0  0  0  0  0  0  0  0
    1.1409    3.1708   -0.0031 H   0  0  0  0  0  0  0  0  0  0  0  0
    3.2972    1.9881   -0.0377 H   0  0  0  0  0  0  0  0  0  0  0  0
    1.2182   -1.7628   -0.0059 H   0  0  0  0  0  0  0  0  0  0  0  0
   -0.9273   -0.5607    0.0288 H   0  0  0  0  0  0  0  0  0  0  0  0
    2.8866   -2.5310   -0.0324 H   0  0  0  0  0  0  0  0  0  0  0  0
    4.7755   -3.3612    1.9843 H   0  0  0  0  0  0  0  0  0  0  0  0
    6.4363   -3.4840    1.3560 H   0  0  0  0  0  0  0  0  0  0  0  0
    7.8577   -1.5209    1.2093 H   0  0  0  0  0  0  0  0  0  0  0  0
    8.3695    0.7102    2.1143 H   0  0  0  0  0  0  0  0  0  0  0  0
    4.3875    0.9969    3.6395 H   0  0  0  0  0  0  0  0  0  0  0  0
    3.8808   -1.2308    2.7234 H   0  0  0  0  0  0  0  0  0  0  0  0
    6.5085    2.9519    2.8215 H   0  0  0  0  0  0  0  0  0  0  0  0
    6.7447   -4.6470   -0.5510 H   0  0  0  0  0  0  0  0  0  0  0  0
    4.1013   -5.6890   -2.6169 H   0  0  0  0  0  0  0  0  0  0  0  0
    3.7513   -7.9729   -3.4352 H   0  0  0  0  0  0  0  0  0  0  0  0
    6.8306   -9.3791   -0.7926 H   0  0  0  0  0  0  0  0  0  0  0  0
    7.1771   -7.0895    0.0110 H   0  0  0  0  0  0  0  0  0  0  0  0
  1  6  2  0  0  0  0
  1  2  1  0  0  0  0
  1 32  1  0  0  0  0
  2  3  2  0  0  0  0
  2 33  1  0  0  0  0
  3  4  1  0  0  0  0
  3 34  1  0  0  0  0
  4  5  2  0  0  0  0
  4  7  1  0  0  0  0
  5  6  1  0  0  0  0
  5 35  1  0  0  0  0
  6 36  1  0  0  0  0
  7  8  2  0  0  0  0
  7  9  1  0  0  0  0
  9 10  1  0  0  0  0
  9 37  1  0  0  0  0
 10 11  1  6  0  0  0
 10 12  1  0  0  0  0
 10 20  1  0  0  0  0
 12 13  1  0  0  0  0
 12 38  1  0  0  0  0
 12 39  1  0  0  0  0
 13 18  2  0  0  0  0
 13 14  1  0  0  0  0
 14 15  2  0  0  0  0
 14 40  1  0  0  0  0
 15 16  1  0  0  0  0
 15 41  1  0  0  0  0
 16 17  2  0  0  0  0
 16 19  1  0  0  0  0
 17 18  1  0  0  0  0
 17 42  1  0  0  0  0
 18 43  1  0  0  0  0
 19 44  1  0  0  0  0
 20 21  2  0  0  0  0
 20 22  1  0  0  0  0
 22 23  1  0  0  0  0
 22 45  1  0  0  0  0
 23 28  2  0  0  0  0
 23 24  1  0  0  0  0
 24 25  2  0  0  0  0
 24 46  1  0  0  0  0
 25 26  1  0  0  0  0
 25 47  1  0  0  0  0
 26 27  2  0  0  0  0
 26 29  1  0  0  0  0
 27 28  1  0  0  0  0
 27 48  1  0  0  0  0
 28 49  1  0  0  0  0
 29 30  2  0  0  0  0
 29 31  1  0  0  0  0
M  END
$$$$
