ZINC00000053
 OpenBabel08292219463D

 20 20  0  0  0  0  0  0  0  0999 V2000
   -1.4238    1.4221    1.2577 C   0  0  0  0  0  0  0  0  0  0  0  0
   -1.3441   -0.0813    1.1904 C   0  0  0  0  0  0  0  0  0  0  0  0
   -1.4532   -0.7378    2.1988 O   0  0  0  0  0  0  0  0  0  0  0  0
   -1.1519   -0.6914    0.0093 O   0  0  0  0  0  0  0  0  0  0  0  0
   -0.9822   -2.0375    0.0080 C   0  0  0  0  0  0  0  0  0  0  0  0
    0.2935   -2.5790    0.0577 C   0  0  0  0  0  0  0  0  0  0  0  0
    0.4647   -3.9491    0.0557 C   0  0  0  0  0  0  0  0  0  0  0  0
   -0.6330   -4.7933    0.0047 C   0  0  0  0  0  0  0  0  0  0  0  0
   -1.9078   -4.2739   -0.0447 C   0  0  0  0  0  0  0  0  0  0  0  0
   -2.0966   -2.8882   -0.0379 C   0  0  0  0  0  0  0  0  0  0  0  0
   -3.4564   -2.3257   -0.0844 C   0  0  0  0  0  0  0  0  0  0  0  0
   -4.4256   -3.0711   -0.1243 O   0  0  0  0  0  0  0  0  0  0  0  0
   -3.6170   -1.1130   -0.0830 O   0  0  0  0  0  1  0  0  0  0  0  0
   -1.5815    1.7317    2.2908 H   0  0  0  0  0  0  0  0  0  0  0  0
   -0.4932    1.8522    0.8875 H   0  0  0  0  0  0  0  0  0  0  0  0
   -2.2544    1.7698    0.6434 H   0  0  0  0  0  0  0  0  0  0  0  0
    1.1543   -1.9280    0.0976 H   0  0  0  0  0  0  0  0  0  0  0  0
    1.4605   -4.3654    0.0938 H   0  0  0  0  0  0  0  0  0  0  0  0
   -0.4882   -5.8635    0.0032 H   0  0  0  0  0  0  0  0  0  0  0  0
   -2.7604   -4.9357   -0.0844 H   0  0  0  0  0  0  0  0  0  0  0  0
  1  2  1  0  0  0  0
  1 14  1  0  0  0  0
  1 15  1  0  0  0  0
  1 16  1  0  0  0  0
  2  3  2  0  0  0  0
  2  4  1  0  0  0  0
  4  5  1  0  0  0  0
  5 10  2  0  0  0  0
  5  6  1  0  0  0  0
  6  7  2  0  0  0  0
  6 17  1  0  0  0  0
  7  8  1  0  0  0  0
  7 18  1  0  0  0  0
  8  9  2  0  0  0  0
  8 19  1  0  0  0  0
  9 10  1  0  0  0  0
  9 20  1  0  0  0  0
 10 11  1  0  0  0  0
 11 12  2  0  0  0  0
 11 13  1  0  0  0  0
M  END
$$$$
