ZINC03830943
 OpenBabel08292219463D

 60 60  0  0  1  0  0  0  0  0999 V2000
   -3.1398    4.3988   -2.5080 C   0  0  0  0  0  0  0  0  0  0  0  0
   -3.5913    4.5491   -1.0781 C   0  0  0  0  0  0  0  0  0  0  0  0
   -4.7363    4.8661   -0.8339 O   0  0  0  0  0  0  0  0  0  0  0  0
   -2.7228    4.3313   -0.0708 N   0  0  0  0  0  0  0  0  0  0  0  0
   -3.1618    4.4774    1.3193 C   0  0  0  0  0  0  0  0  0  0  0  0
   -2.7947    5.8736    1.8259 C   0  0  1  0  0  0  0  0  0  0  0  0
   -3.1826    6.6238    1.1367 H   0  0  0  0  0  0  0  0  0  0  0  0
   -3.4055    6.0901    3.2119 C   0  0  0  0  0  0  0  0  0  0  0  0
   -3.1619    7.4331    3.6353 O   0  0  0  0  0  0  0  0  0  0  0  0
   -1.3730    5.9921    1.9081 O   0  0  0  0  0  0  0  0  0  0  0  0
   -1.4008    3.9652   -0.3528 C   0  0  0  0  0  0  0  0  0  0  0  0
   -1.0165    2.6352   -0.2617 C   0  0  0  0  0  0  0  0  0  0  0  0
    0.3028    2.2672   -0.5366 C   0  0  0  0  0  0  0  0  0  0  0  0
    1.2311    3.2367   -0.9134 C   0  0  0  0  0  0  0  0  0  0  0  0
    0.8400    4.5715   -1.0091 C   0  0  0  0  0  0  0  0  0  0  0  0
   -0.4798    4.9328   -0.7274 C   0  0  0  0  0  0  0  0  0  0  0  0
   -1.0690    6.9380   -0.8714 I   0  0  0  0  0  0  0  0  0  0  0  0
    1.8201    5.6027   -1.4084 C   0  0  0  0  0  0  0  0  0  0  0  0
    1.9669    5.8794   -2.5830 O   0  0  0  0  0  0  0  0  0  0  0  0
    2.5514    6.2366   -0.4704 N   0  0  0  0  0  0  0  0  0  0  0  0
    3.5231    7.2590   -0.8663 C   0  0  0  0  0  0  0  0  0  0  0  0
    4.2127    7.8171    0.3803 C   0  0  1  0  0  0  0  0  0  0  0  0
    4.7266    7.0105    0.9031 H   0  0  0  0  0  0  0  0  0  0  0  0
    5.2275    8.8849   -0.0332 C   0  0  0  0  0  0  0  0  0  0  0  0
    5.9534    9.3229    1.1171 O   0  0  0  0  0  0  0  0  0  0  0  0
    3.2351    8.3986    1.2453 O   0  0  0  0  0  0  0  0  0  0  0  0
    3.2091    2.6894   -1.3339 I   0  0  0  0  0  0  0  0  0  0  0  0
    0.7123    0.8510   -0.4343 C   0  0  0  0  0  0  0  0  0  0  0  0
    1.1371    0.4157    0.6182 O   0  0  0  0  0  0  0  0  0  0  0  0
    0.6149    0.0421   -1.5079 N   0  0  0  0  0  0  0  0  0  0  0  0
    1.0210   -1.3619   -1.4064 C   0  0  0  0  0  0  0  0  0  0  0  0
    0.8111   -2.0522   -2.7555 C   0  0  1  0  0  0  0  0  0  0  0  0
    1.4125   -1.5541   -3.5160 H   0  0  0  0  0  0  0  0  0  0  0  0
    1.2351   -3.5185   -2.6496 C   0  0  0  0  0  0  0  0  0  0  0  0
    1.1495   -4.1333   -3.9367 O   0  0  0  0  0  0  0  0  0  0  0  0
   -0.5694   -1.9806   -3.1176 O   0  0  0  0  0  0  0  0  0  0  0  0
   -2.4145    1.1782    0.2968 I   0  0  0  0  0  0  0  0  0  0  0  0
   -2.0885    4.1116   -2.5288 H   0  0  0  0  0  0  0  0  0  0  0  0
   -3.7363    3.6295   -2.9985 H   0  0  0  0  0  0  0  0  0  0  0  0
   -3.2679    5.3465   -3.0310 H   0  0  0  0  0  0  0  0  0  0  0  0
   -4.2420    4.3429    1.3752 H   0  0  0  0  0  0  0  0  0  0  0  0
   -2.6696    3.7259    1.9366 H   0  0  0  0  0  0  0  0  0  0  0  0
   -4.4800    5.9125    3.1672 H   0  0  0  0  0  0  0  0  0  0  0  0
   -2.9520    5.3976    3.9210 H   0  0  0  0  0  0  0  0  0  0  0  0
   -3.5221    7.6417    4.5081 H   0  0  0  0  0  0  0  0  0  0  0  0
   -0.9591    5.3539    2.5052 H   0  0  0  0  0  0  0  0  0  0  0  0
    2.4343    6.0159    0.4669 H   0  0  0  0  0  0  0  0  0  0  0  0
    4.2687    6.8154   -1.5261 H   0  0  0  0  0  0  0  0  0  0  0  0
    3.0091    8.0656   -1.3891 H   0  0  0  0  0  0  0  0  0  0  0  0
    5.9206    8.4645   -0.7619 H   0  0  0  0  0  0  0  0  0  0  0  0
    4.7036    9.7317   -0.4765 H   0  0  0  0  0  0  0  0  0  0  0  0
    6.6160   10.0016    0.9290 H   0  0  0  0  0  0  0  0  0  0  0  0
    2.7380    9.1250    0.8450 H   0  0  0  0  0  0  0  0  0  0  0  0
    0.2760    0.3894   -2.3477 H   0  0  0  0  0  0  0  0  0  0  0  0
    2.0740   -1.4165   -1.1302 H   0  0  0  0  0  0  0  0  0  0  0  0
    0.4196   -1.8600   -0.6459 H   0  0  0  0  0  0  0  0  0  0  0  0
    2.2618   -3.5745   -2.2877 H   0  0  0  0  0  0  0  0  0  0  0  0
    0.5759   -4.0380   -1.9542 H   0  0  0  0  0  0  0  0  0  0  0  0
    1.4044   -5.0661   -3.9447 H   0  0  0  0  0  0  0  0  0  0  0  0
   -1.1646   -2.4048   -2.4844 H   0  0  0  0  0  0  0  0  0  0  0  0
  1  2  1  0  0  0  0
  1 38  1  0  0  0  0
  1 39  1  0  0  0  0
  1 40  1  0  0  0  0
  2  3  2  0  0  0  0
  2  4  1  0  0  0  0
  4  5  1  0  0  0  0
  4 11  1  0  0  0  0
  5  6  1  0  0  0  0
  5 41  1  0  0  0  0
  5 42  1  0  0  0  0
  6  7  1  6  0  0  0
  6  8  1  0  0  0  0
  6 10  1  0  0  0  0
  8  9  1  0  0  0  0
  8 43  1  0  0  0  0
  8 44  1  0  0  0  0
  9 45  1  0  0  0  0
 10 46  1  0  0  0  0
 11 16  2  0  0  0  0
 11 12  1  0  0  0  0
 12 13  2  0  0  0  0
 12 37  1  0  0  0  0
 13 14  1  0  0  0  0
 13 28  1  0  0  0  0
 14 15  2  0  0  0  0
 14 27  1  0  0  0  0
 15 16  1  0  0  0  0
 15 18  1  0  0  0  0
 16 17  1  0  0  0  0
 18 19  2  0  0  0  0
 18 20  1  0  0  0  0
 20 21  1  0  0  0  0
 20 47  1  0  0  0  0
 21 22  1  0  0  0  0
 21 48  1  0  0  0  0
 21 49  1  0  0  0  0
 22 23  1  1  0  0  0
 22 24  1  0  0  0  0
 22 26  1  0  0  0  0
 24 25  1  0  0  0  0
 24 50  1  0  0  0  0
 24 51  1  0  0  0  0
 25 52  1  0  0  0  0
 26 53  1  0  0  0  0
 28 29  2  0  0  0  0
 28 30  1  0  0  0  0
 30 31  1  0  0  0  0
 30 54  1  0  0  0  0
 31 32  1  0  0  0  0
 31 55  1  0  0  0  0
 31 56  1  0  0  0  0
 32 33  1  6  0  0  0
 32 34  1  0  0  0  0
 32 36  1  0  0  0  0
 34 35  1  0  0  0  0
 34 57  1  0  0  0  0
 34 58  1  0  0  0  0
 35 59  1  0  0  0  0
 36 60  1  0  0  0  0
M  END
$$$$
