ZINC18085533
 OpenBabel08292219463D

 16 17  0  0  0  0  0  0  0  0999 V2000
   -0.0156    1.2971    0.0092 C   0  0  0  0  0  0  0  0  0  0  0  0
    1.2619    1.7770   -0.0004 N   0  0  0  0  0  0  0  0  0  0  0  0
    1.5240    2.7110    0.0024 H   0  0  0  0  0  0  0  0  0  0  0  0
    2.1058    0.6995   -0.0143 C   0  0  0  0  0  0  0  0  0  0  0  0
    1.2865   -0.4354   -0.0126 C   0  0  0  0  0  0  0  0  0  0  0  0
    0.0021   -0.0041    0.0020 N   0  0  0  0  0  0  0  0  0  0  0  0
    1.8967   -1.7106   -0.0256 C   0  0  0  0  0  0  0  0  0  0  0  0
    0.9490   -3.1364   -0.0248 S   0  0  0  0  0  0  0  0  0  0  0  0
    3.2464   -1.7765   -0.0393 N   0  0  0  0  0  0  0  0  0  0  0  0
    3.6872   -2.6404   -0.0484 H   0  0  0  0  0  0  0  0  0  0  0  0
    3.9915   -0.6350   -0.0407 C   0  0  0  0  0  0  0  0  0  0  0  0
    3.4367    0.5564   -0.0278 N   0  0  0  0  0  0  0  0  0  0  0  0
    5.3603   -0.7327   -0.0551 N   0  0  0  0  0  0  0  0  0  0  0  0
   -0.9075    1.9059    0.0250 H   0  0  0  0  0  0  0  0  0  0  0  0
    5.7842   -1.6051   -0.0641 H   0  0  0  0  0  0  0  0  0  0  0  0
    5.9039    0.0707   -0.0563 H   0  0  0  0  0  0  0  0  0  0  0  0
  1  6  2  0  0  0  0
  1  2  1  0  0  0  0
  1 14  1  0  0  0  0
  2  3  1  0  0  0  0
  2  4  1  0  0  0  0
  4 12  1  0  0  0  0
  4  5  2  0  0  0  0
  5  6  1  0  0  0  0
  5  7  1  0  0  0  0
  7  8  2  0  0  0  0
  7  9  1  0  0  0  0
  9 10  1  0  0  0  0
  9 11  1  0  0  0  0
 11 12  2  0  0  0  0
 11 13  1  0  0  0  0
 13 15  1  0  0  0  0
 13 16  1  0  0  0  0
M  END
$$$$
