ZINC19685790
 OpenBabel08292219463D

 87 90  0  0  1  0  0  0  0  0999 V2000
    3.9941    7.4329    7.4595 C   0  0  0  0  0  0  0  0  0  0  0  0
    4.0580    5.9415    7.6660 C   0  0  0  0  0  0  0  0  0  0  0  0
    3.1513    5.3413    8.4564 C   0  0  0  0  0  0  0  0  0  0  0  0
    3.1819    3.8587    8.6977 C   0  0  1  0  0  0  0  0  0  0  0  0
    2.1573    3.4676    8.6121 H   0  0  0  0  0  0  0  0  0  0  0  0
    4.0443    3.1713    7.6776 C   0  0  0  0  0  0  0  0  0  0  0  0
    4.9191    3.8579    6.9223 C   0  0  0  0  0  0  0  0  0  0  0  0
    5.0384    5.2150    7.0472 N   0  0  0  0  0  0  0  0  0  0  0  0
    5.7744    3.1245    5.9215 C   0  0  0  0  0  0  0  0  0  0  0  0
    3.9378    1.7709    7.5123 C   0  0  0  0  0  0  0  0  0  0  0  0
    4.4160    1.0220    8.3437 O   0  0  0  0  0  0  0  0  0  0  0  0
    3.3057    1.2651    6.4326 O   0  0  0  0  0  0  0  0  0  0  0  0
    3.2353   -0.1585    6.3299 C   0  0  0  0  0  0  0  0  0  0  0  0
    2.4915   -0.7212    7.5427 C   0  0  0  0  0  0  0  0  0  0  0  0
    4.6509   -0.7373    6.2861 C   0  0  0  0  0  0  0  0  0  0  0  0
    2.4881   -0.5412    5.0508 C   0  0  0  0  0  0  0  0  0  0  0  0
    1.0844   -0.1220    5.1596 N   0  3  1  0  0  0  0  0  0  0  0  0
    0.9625    1.3389    5.0657 C   0  0  0  0  0  0  0  0  0  0  0  0
    0.2564   -0.7858    4.1438 C   0  0  0  0  0  0  0  0  0  0  0  0
   -1.2216   -0.5240    4.4400 C   0  0  0  0  0  0  0  0  0  0  0  0
   -2.0840   -1.2154    3.3820 C   0  0  0  0  0  0  0  0  0  0  0  0
   -1.9136   -2.7086    3.4924 C   0  0  0  0  0  0  0  0  0  0  0  0
   -1.5789   -3.4506    2.3750 C   0  0  0  0  0  0  0  0  0  0  0  0
   -1.4226   -4.8203    2.4763 C   0  0  0  0  0  0  0  0  0  0  0  0
   -1.6009   -5.4481    3.6949 C   0  0  0  0  0  0  0  0  0  0  0  0
   -1.9351   -4.7061    4.8123 C   0  0  0  0  0  0  0  0  0  0  0  0
   -2.0915   -3.3364    4.7110 C   0  0  0  0  0  0  0  0  0  0  0  0
   -3.5313   -0.8574    3.6012 C   0  0  0  0  0  0  0  0  0  0  0  0
   -4.1054   -1.0318    4.8466 C   0  0  0  0  0  0  0  0  0  0  0  0
   -5.4316   -0.6984    5.0491 C   0  0  0  0  0  0  0  0  0  0  0  0
   -6.1867   -0.2009    4.0035 C   0  0  0  0  0  0  0  0  0  0  0  0
   -5.6141   -0.0319    2.7567 C   0  0  0  0  0  0  0  0  0  0  0  0
   -4.2863   -0.3599    2.5556 C   0  0  0  0  0  0  0  0  0  0  0  0
    3.7331    3.5914   10.0746 C   0  0  0  0  0  0  0  0  0  0  0  0
    5.0176    3.9903   10.3944 C   0  0  0  0  0  0  0  0  0  0  0  0
    5.5230    3.7455   11.6574 C   0  0  0  0  0  0  0  0  0  0  0  0
    4.7440    3.1017   12.6008 C   0  0  0  0  0  0  0  0  0  0  0  0
    3.4600    2.7024   12.2809 C   0  0  0  0  0  0  0  0  0  0  0  0
    2.9525    2.9524   11.0194 C   0  0  0  0  0  0  0  0  0  0  0  0
    2.6262    2.0127   13.2908 N   0  0  0  0  0  4  0  0  0  0  0  0
    3.0716    1.7969   14.4038 O   0  0  0  0  0  0  0  0  0  0  0  0
    1.4947    1.6608   13.0089 O   0  5  0  0  0  0  0  0  0  0  0  0
    2.1468    6.1221    9.0736 C   0  0  0  0  0  0  0  0  0  0  0  0
    2.0454    7.3049    8.8063 O   0  0  0  0  0  0  0  0  0  0  0  0
    1.3006    5.5555    9.9591 O   0  0  0  0  0  0  0  0  0  0  0  0
    0.3104    6.4036   10.5442 C   0  0  0  0  0  0  0  0  0  0  0  0
    3.1488    7.8461    8.0294 H   0  0  0  0  0  0  0  0  0  0  0  0
    3.8559    7.6494    6.3899 H   0  0  0  0  0  0  0  0  0  0  0  0
    4.9309    7.8918    7.8084 H   0  0  0  0  0  0  0  0  0  0  0  0
    5.9288    5.7218    6.6468 H   0  0  0  0  0  0  0  0  0  0  0  0
    6.4243    3.8419    5.3991 H   0  0  0  0  0  0  0  0  0  0  0  0
    5.1288    2.6151    5.1909 H   0  0  0  0  0  0  0  0  0  0  0  0
    6.3944    2.3811    6.4440 H   0  0  0  0  0  0  0  0  0  0  0  0
    2.4373   -1.8170    7.4636 H   0  0  0  0  0  0  0  0  0  0  0  0
    1.4737   -0.3051    7.5741 H   0  0  0  0  0  0  0  0  0  0  0  0
    3.0287   -0.4461    8.4623 H   0  0  0  0  0  0  0  0  0  0  0  0
    4.5967   -1.8331    6.2070 H   0  0  0  0  0  0  0  0  0  0  0  0
    5.1881   -0.4621    7.2057 H   0  0  0  0  0  0  0  0  0  0  0  0
    5.1856   -0.3328    5.4141 H   0  0  0  0  0  0  0  0  0  0  0  0
    2.9547   -0.0402    4.1898 H   0  0  0  0  0  0  0  0  0  0  0  0
    2.5354   -1.6312    4.9107 H   0  0  0  0  0  0  0  0  0  0  0  0
   -0.0964    1.6246    5.1500 H   0  0  0  0  0  0  0  0  0  0  0  0
    1.3579    1.6783    4.0970 H   0  0  0  0  0  0  0  0  0  0  0  0
    1.5347    1.8076    5.8799 H   0  0  0  0  0  0  0  0  0  0  0  0
    0.5071   -0.3881    3.1493 H   0  0  0  0  0  0  0  0  0  0  0  0
    0.4484   -1.8687    4.1647 H   0  0  0  0  0  0  0  0  0  0  0  0
   -1.4723   -0.9217    5.4345 H   0  0  0  0  0  0  0  0  0  0  0  0
   -1.4136    0.5589    4.4191 H   0  0  0  0  0  0  0  0  0  0  0  0
   -1.7830   -0.8931    2.3743 H   0  0  0  0  0  0  0  0  0  0  0  0
   -1.4399   -2.9601    1.4229 H   0  0  0  0  0  0  0  0  0  0  0  0
   -1.1615   -5.4000    1.6033 H   0  0  0  0  0  0  0  0  0  0  0  0
   -1.4836   -6.5189    3.7730 H   0  0  0  0  0  0  0  0  0  0  0  0
   -2.0748   -5.1966    5.7643 H   0  0  0  0  0  0  0  0  0  0  0  0
   -2.3526   -2.7566    5.5841 H   0  0  0  0  0  0  0  0  0  0  0  0
   -3.5167   -1.4247    5.6624 H   0  0  0  0  0  0  0  0  0  0  0  0
   -5.8789   -0.8302    6.0232 H   0  0  0  0  0  0  0  0  0  0  0  0
   -7.2238    0.0560    4.1607 H   0  0  0  0  0  0  0  0  0  0  0  0
   -6.2040    0.3568    1.9398 H   0  0  0  0  0  0  0  0  0  0  0  0
   -3.8390   -0.2278    1.5816 H   0  0  0  0  0  0  0  0  0  0  0  0
    5.6260    4.4936    9.6576 H   0  0  0  0  0  0  0  0  0  0  0  0
    6.5263    4.0575   11.9073 H   0  0  0  0  0  0  0  0  0  0  0  0
    5.1389    2.9104   13.5877 H   0  0  0  0  0  0  0  0  0  0  0  0
    1.9475    2.6447   10.7709 H   0  0  0  0  0  0  0  0  0  0  0  0
   -0.3074    5.8189   11.2417 H   0  0  0  0  0  0  0  0  0  0  0  0
   -0.3276    6.8228    9.7523 H   0  0  0  0  0  0  0  0  0  0  0  0
    0.8040    7.2219   11.0890 H   0  0  0  0  0  0  0  0  0  0  0  0
    0.7157   -0.4290    6.1495 H   0  0  0  0  0  0  0  0  0  0  0  0
  1  2  1  0  0  0  0
  1 47  1  0  0  0  0
  1 48  1  0  0  0  0
  1 49  1  0  0  0  0
  2  8  1  0  0  0  0
  2  3  2  0  0  0  0
  3  4  1  0  0  0  0
  3 43  1  0  0  0  0
  4  5  1  6  0  0  0
  4  6  1  0  0  0  0
  4 34  1  0  0  0  0
  6  7  2  0  0  0  0
  6 10  1  0  0  0  0
  7  8  1  0  0  0  0
  7  9  1  0  0  0  0
  8 50  1  0  0  0  0
  9 51  1  0  0  0  0
  9 52  1  0  0  0  0
  9 53  1  0  0  0  0
 10 11  2  0  0  0  0
 10 12  1  0  0  0  0
 12 13  1  0  0  0  0
 13 14  1  0  0  0  0
 13 15  1  0  0  0  0
 13 16  1  0  0  0  0
 14 54  1  0  0  0  0
 14 55  1  0  0  0  0
 14 56  1  0  0  0  0
 15 57  1  0  0  0  0
 15 58  1  0  0  0  0
 15 59  1  0  0  0  0
 16 17  1  0  0  0  0
 16 60  1  0  0  0  0
 16 61  1  0  0  0  0
 17 18  1  0  0  0  0
 17 19  1  0  0  0  0
 17 87  1  1  0  0  0
 18 62  1  0  0  0  0
 18 63  1  0  0  0  0
 18 64  1  0  0  0  0
 19 20  1  0  0  0  0
 19 65  1  0  0  0  0
 19 66  1  0  0  0  0
 20 21  1  0  0  0  0
 20 67  1  0  0  0  0
 20 68  1  0  0  0  0
 21 22  1  0  0  0  0
 21 28  1  0  0  0  0
 21 69  1  0  0  0  0
 22 27  2  0  0  0  0
 22 23  1  0  0  0  0
 23 24  2  0  0  0  0
 23 70  1  0  0  0  0
 24 25  1  0  0  0  0
 24 71  1  0  0  0  0
 25 26  2  0  0  0  0
 25 72  1  0  0  0  0
 26 27  1  0  0  0  0
 26 73  1  0  0  0  0
 27 74  1  0  0  0  0
 28 33  2  0  0  0  0
 28 29  1  0  0  0  0
 29 30  2  0  0  0  0
 29 75  1  0  0  0  0
 30 31  1  0  0  0  0
 30 76  1  0  0  0  0
 31 32  2  0  0  0  0
 31 77  1  0  0  0  0
 32 33  1  0  0  0  0
 32 78  1  0  0  0  0
 33 79  1  0  0  0  0
 34 39  2  0  0  0  0
 34 35  1  0  0  0  0
 35 36  2  0  0  0  0
 35 80  1  0  0  0  0
 36 37  1  0  0  0  0
 36 81  1  0  0  0  0
 37 38  2  0  0  0  0
 37 82  1  0  0  0  0
 38 39  1  0  0  0  0
 38 40  1  0  0  0  0
 39 83  1  0  0  0  0
 40 41  2  0  0  0  0
 40 42  1  0  0  0  0
 43 44  2  0  0  0  0
 43 45  1  0  0  0  0
 45 46  1  0  0  0  0
 46 84  1  0  0  0  0
 46 85  1  0  0  0  0
 46 86  1  0  0  0  0
M  CHG  2  17   1  42  -1
M  END
$$$$
