ZINC18279854
 OpenBabel08292219463D

 29 30  0  0  1  0  0  0  0  0999 V2000
   -0.0170    1.4058    0.0098 C   0  0  0  0  0  0  0  0  0  0  0  0
    1.1585    2.0778    0.0022 C   0  0  0  0  0  0  0  0  0  0  0  0
    2.3268    1.3767   -0.0128 N   0  0  0  0  0  0  0  0  0  0  0  0
    2.3121    0.0311   -0.0199 C   0  0  0  0  0  0  0  0  0  0  0  0
    3.3676   -0.5804   -0.0328 O   0  0  0  0  0  0  0  0  0  0  0  0
    1.1640   -0.6440   -0.0125 N   0  0  0  0  0  0  0  0  0  0  0  0
    0.0021   -0.0041    0.0020 C   0  0  0  0  0  0  0  0  0  0  0  0
   -1.1774   -0.7119    0.0095 N   0  0  0  0  0  0  0  0  0  0  0  0
    3.6056    2.0915   -0.0216 C   0  0  1  0  0  0  0  0  0  0  0  0
    3.4390    3.1645   -0.1161 H   0  0  0  0  0  0  0  0  0  0  0  0
    4.4034    1.7823    1.2646 C   0  0  0  0  0  0  0  0  0  0  0  0
    5.8715    1.7120    0.7880 C   0  0  1  0  0  0  0  0  0  0  0  0
    6.2864    0.7214    0.9741 H   0  0  0  0  0  0  0  0  0  0  0  0
    5.7870    1.9870   -0.7298 C   0  0  2  0  0  0  0  0  0  0  0  0
    5.9566    3.0441   -0.9339 H   0  0  0  0  0  0  0  0  0  0  0  0
    4.4403    1.6153   -1.0998 O   0  0  0  0  0  0  0  0  0  0  0  0
    6.8055    1.1298   -1.4839 C   0  0  0  0  0  0  0  0  0  0  0  0
    6.7924    1.4823   -2.8687 O   0  0  0  0  0  0  0  0  0  0  0  0
    6.6574    2.7129    1.4379 O   0  0  0  0  0  0  0  0  0  0  0  0
    4.2407    2.8089    2.2010 F   0  0  0  0  0  0  0  0  0  0  0  0
    4.0045    0.5555    1.8059 F   0  0  0  0  0  0  0  0  0  0  0  0
   -0.9547    1.9414    0.0261 H   0  0  0  0  0  0  0  0  0  0  0  0
    1.1700    3.1577    0.0075 H   0  0  0  0  0  0  0  0  0  0  0  0
   -2.0255   -0.2412    0.0201 H   0  0  0  0  0  0  0  0  0  0  0  0
   -1.1611   -1.6818    0.0041 H   0  0  0  0  0  0  0  0  0  0  0  0
    7.8006    1.3032   -1.0742 H   0  0  0  0  0  0  0  0  0  0  0  0
    6.5461    0.0768   -1.3746 H   0  0  0  0  0  0  0  0  0  0  0  0
    7.4155    0.9773   -3.4090 H   0  0  0  0  0  0  0  0  0  0  0  0
    6.6942    2.6209    2.3999 H   0  0  0  0  0  0  0  0  0  0  0  0
  1  7  1  0  0  0  0
  1  2  2  0  0  0  0
  1 22  1  0  0  0  0
  2  3  1  0  0  0  0
  2 23  1  0  0  0  0
  3  4  1  0  0  0  0
  3  9  1  0  0  0  0
  4  5  2  0  0  0  0
  4  6  1  0  0  0  0
  6  7  2  0  0  0  0
  7  8  1  0  0  0  0
  8 24  1  0  0  0  0
  8 25  1  0  0  0  0
  9 10  1  6  0  0  0
  9 16  1  0  0  0  0
  9 11  1  0  0  0  0
 11 12  1  0  0  0  0
 11 20  1  0  0  0  0
 11 21  1  0  0  0  0
 12 13  1  1  0  0  0
 12 14  1  0  0  0  0
 12 19  1  0  0  0  0
 14 15  1  6  0  0  0
 14 16  1  0  0  0  0
 14 17  1  0  0  0  0
 17 18  1  0  0  0  0
 17 26  1  0  0  0  0
 17 27  1  0  0  0  0
 18 28  1  0  0  0  0
 19 29  1  0  0  0  0
M  END
$$$$
