ZINC00136138
 OpenBabel08292219463D

 29 30  0  0  0  0  0  0  0  0999 V2000
   -0.1327    1.3861   -0.0238 C   0  0  0  0  0  0  0  0  0  0  0  0
    0.0042   -0.0357    0.0209 O   0  0  0  0  0  0  0  0  0  0  0  0
    0.6071   -0.6301   -1.0395 C   0  0  0  0  0  0  0  0  0  0  0  0
    1.0637    0.1456   -2.1017 C   0  0  0  0  0  0  0  0  0  0  0  0
    1.6721   -0.4410   -3.1735 C   0  0  0  0  0  0  0  0  0  0  0  0
    1.8408   -1.8299   -3.2110 C   0  0  0  0  0  0  0  0  0  0  0  0
    1.3815   -2.6160   -2.1413 C   0  0  0  0  0  0  0  0  0  0  0  0
    0.7709   -2.0077   -1.0578 C   0  0  0  0  0  0  0  0  0  0  0  0
    1.5395   -3.9629   -2.1676 O   0  0  0  0  0  0  0  0  0  0  0  0
    2.4961   -2.4640   -4.3661 C   0  0  0  0  0  0  0  0  0  0  0  0
    3.7035   -2.3934   -4.4947 O   0  0  0  0  0  0  0  0  0  0  0  0
    1.6869   -3.1868   -5.3701 C   0  0  0  0  0  0  0  0  0  0  0  0
    0.2929   -3.1694   -5.2916 C   0  0  0  0  0  0  0  0  0  0  0  0
   -0.4562   -3.8460   -6.2317 C   0  0  0  0  0  0  0  0  0  0  0  0
    0.1709   -4.5412   -7.2507 C   0  0  0  0  0  0  0  0  0  0  0  0
    1.5520   -4.5625   -7.3345 C   0  0  0  0  0  0  0  0  0  0  0  0
    2.3130   -3.8851   -6.4046 C   0  0  0  0  0  0  0  0  0  0  0  0
    0.8539    1.8440   -0.0944 H   0  0  0  0  0  0  0  0  0  0  0  0
   -0.7266    1.6667   -0.8936 H   0  0  0  0  0  0  0  0  0  0  0  0
   -0.6298    1.7319    0.8825 H   0  0  0  0  0  0  0  0  0  0  0  0
    0.9355    1.2177   -2.0775 H   0  0  0  0  0  0  0  0  0  0  0  0
    2.0234    0.1673   -3.9939 H   0  0  0  0  0  0  0  0  0  0  0  0
    0.4189   -2.6051   -0.2299 H   0  0  0  0  0  0  0  0  0  0  0  0
    2.3693   -4.2693   -1.7767 H   0  0  0  0  0  0  0  0  0  0  0  0
   -0.1977   -2.6278   -4.4964 H   0  0  0  0  0  0  0  0  0  0  0  0
   -1.5344   -3.8334   -6.1722 H   0  0  0  0  0  0  0  0  0  0  0  0
   -0.4203   -5.0698   -7.9838 H   0  0  0  0  0  0  0  0  0  0  0  0
    2.0350   -5.1071   -8.1323 H   0  0  0  0  0  0  0  0  0  0  0  0
    3.3907   -3.8989   -6.4737 H   0  0  0  0  0  0  0  0  0  0  0  0
  1  2  1  0  0  0  0
  1 18  1  0  0  0  0
  1 19  1  0  0  0  0
  1 20  1  0  0  0  0
  2  3  1  0  0  0  0
  3  8  2  0  0  0  0
  3  4  1  0  0  0  0
  4  5  2  0  0  0  0
  4 21  1  0  0  0  0
  5  6  1  0  0  0  0
  5 22  1  0  0  0  0
  6  7  2  0  0  0  0
  6 10  1  0  0  0  0
  7  8  1  0  0  0  0
  7  9  1  0  0  0  0
  8 23  1  0  0  0  0
  9 24  1  0  0  0  0
 10 11  2  0  0  0  0
 10 12  1  0  0  0  0
 12 17  2  0  0  0  0
 12 13  1  0  0  0  0
 13 14  2  0  0  0  0
 13 25  1  0  0  0  0
 14 15  1  0  0  0  0
 14 26  1  0  0  0  0
 15 16  2  0  0  0  0
 15 27  1  0  0  0  0
 16 17  1  0  0  0  0
 16 28  1  0  0  0  0
 17 29  1  0  0  0  0
M  END
$$$$
