ZINC00000596
 OpenBabel08292219463D

 49 51  0  0  1  0  0  0  0  0999 V2000
    1.1810    0.6734   -0.4602 C   0  0  0  0  0  0  0  0  0  0  0  0
   -0.3103    0.3734   -0.2964 C   0  0  1  0  0  0  0  0  0  0  0  0
   -0.4566   -0.6974   -0.1546 H   0  0  0  0  0  0  0  0  0  0  0  0
   -0.8596    1.1333    0.9106 C   0  0  1  0  0  0  0  0  0  0  0  0
   -0.3716    0.7400    1.8024 H   0  0  0  0  0  0  0  0  0  0  0  0
   -0.4886    2.6026    0.8088 C   0  0  0  0  0  0  0  0  0  0  0  0
   -0.7124    3.1461   -0.5773 C   0  0  0  0  0  0  0  0  0  0  0  0
   -0.6417    4.5245   -0.7476 C   0  0  0  0  0  0  0  0  0  0  0  0
   -0.8037    5.0868   -1.9953 C   0  0  0  0  0  0  0  0  0  0  0  0
   -1.0399    4.2730   -3.0941 C   0  0  0  0  0  0  0  0  0  0  0  0
   -1.1181    2.9007   -2.9238 C   0  0  0  0  0  0  0  0  0  0  0  0
   -0.9596    2.3404   -1.6653 C   0  0  0  0  0  0  0  0  0  0  0  0
   -1.0712    0.8387   -1.5424 C   0  0  2  0  0  0  0  0  0  0  0  0
   -2.5604    0.5047   -1.3358 C   0  0  0  0  0  0  0  0  0  0  0  0
   -3.0578    1.3124   -0.1317 C   0  0  0  0  0  0  0  0  0  0  0  0
   -2.8018    1.6243    2.2533 C   0  0  0  0  0  0  0  0  0  0  0  0
   -4.2991    1.4695    2.3258 C   0  0  0  0  0  0  0  0  0  0  0  0
   -5.0630    2.5289    2.4263 C   0  0  0  0  0  0  0  0  0  0  0  0
   -4.4429    3.8911    2.6019 C   0  0  0  0  0  0  0  0  0  0  0  0
   -6.5620    2.3854    2.3663 C   0  0  0  0  0  0  0  0  0  0  0  0
   -0.5306    0.1432   -2.7933 C   0  0  0  0  0  0  0  0  0  0  0  0
   -1.1938    4.8189   -4.3291 O   0  0  0  0  0  0  0  0  0  0  0  0
    1.7168    0.3508    0.4325 H   0  0  0  0  0  0  0  0  0  0  0  0
    1.5661    0.1382   -1.3282 H   0  0  0  0  0  0  0  0  0  0  0  0
    1.3227    1.7449   -0.6017 H   0  0  0  0  0  0  0  0  0  0  0  0
   -1.0945    3.1709    1.5146 H   0  0  0  0  0  0  0  0  0  0  0  0
    0.5628    2.7216    1.0708 H   0  0  0  0  0  0  0  0  0  0  0  0
   -0.4582    5.1602    0.1059 H   0  0  0  0  0  0  0  0  0  0  0  0
   -0.7465    6.1583   -2.1177 H   0  0  0  0  0  0  0  0  0  0  0  0
   -1.3033    2.2635   -3.7759 H   0  0  0  0  0  0  0  0  0  0  0  0
   -2.6758   -0.5611   -1.1388 H   0  0  0  0  0  0  0  0  0  0  0  0
   -3.1280    0.7795   -2.2249 H   0  0  0  0  0  0  0  0  0  0  0  0
   -4.1155    1.1061    0.0322 H   0  0  0  0  0  0  0  0  0  0  0  0
   -2.9211    2.3761   -0.3263 H   0  0  0  0  0  0  0  0  0  0  0  0
   -2.3482    1.1918    3.1451 H   0  0  0  0  0  0  0  0  0  0  0  0
   -2.5484    2.6828    2.1938 H   0  0  0  0  0  0  0  0  0  0  0  0
   -4.7423    0.4851    2.2948 H   0  0  0  0  0  0  0  0  0  0  0  0
   -4.1823    4.3003    1.6258 H   0  0  0  0  0  0  0  0  0  0  0  0
   -5.1543    4.5533    3.0953 H   0  0  0  0  0  0  0  0  0  0  0  0
   -3.5435    3.8050    3.2116 H   0  0  0  0  0  0  0  0  0  0  0  0
   -6.8215    1.3347    2.2372 H   0  0  0  0  0  0  0  0  0  0  0  0
   -6.9998    2.7566    3.2929 H   0  0  0  0  0  0  0  0  0  0  0  0
   -6.9487    2.9612    1.5255 H   0  0  0  0  0  0  0  0  0  0  0  0
   -0.6488   -0.9354   -2.6891 H   0  0  0  0  0  0  0  0  0  0  0  0
   -1.0835    0.4866   -3.6676 H   0  0  0  0  0  0  0  0  0  0  0  0
    0.5259    0.3828   -2.9143 H   0  0  0  0  0  0  0  0  0  0  0  0
   -2.1084    5.0436   -4.5486 H   0  0  0  0  0  0  0  0  0  0  0  0
   -2.3079    0.8926    1.0783 N   0  3  2  0  0  0  0  0  0  0  0  0
   -2.4589   -0.1122    1.2258 H   0  0  0  0  0  0  0  0  0  0  0  0
  1  2  1  0  0  0  0
  1 23  1  0  0  0  0
  1 24  1  0  0  0  0
  1 25  1  0  0  0  0
  2  3  1  1  0  0  0
  2 13  1  0  0  0  0
  2  4  1  0  0  0  0
  4  5  1  1  0  0  0
  4  6  1  0  0  0  0
  4 48  1  0  0  0  0
  6  7  1  0  0  0  0
  6 26  1  0  0  0  0
  6 27  1  0  0  0  0
  7 12  2  0  0  0  0
  7  8  1  0  0  0  0
  8  9  2  0  0  0  0
  8 28  1  0  0  0  0
  9 10  1  0  0  0  0
  9 29  1  0  0  0  0
 10 11  2  0  0  0  0
 10 22  1  0  0  0  0
 11 12  1  0  0  0  0
 11 30  1  0  0  0  0
 12 13  1  0  0  0  0
 13 14  1  0  0  0  0
 13 21  1  6  0  0  0
 14 15  1  0  0  0  0
 14 31  1  0  0  0  0
 14 32  1  0  0  0  0
 15 33  1  0  0  0  0
 15 34  1  0  0  0  0
 15 48  1  0  0  0  0
 16 17  1  0  0  0  0
 16 35  1  0  0  0  0
 16 36  1  0  0  0  0
 16 48  1  0  0  0  0
 17 18  2  0  0  0  0
 17 37  1  0  0  0  0
 18 19  1  0  0  0  0
 18 20  1  0  0  0  0
 19 38  1  0  0  0  0
 19 39  1  0  0  0  0
 19 40  1  0  0  0  0
 20 41  1  0  0  0  0
 20 42  1  0  0  0  0
 20 43  1  0  0  0  0
 21 44  1  0  0  0  0
 21 45  1  0  0  0  0
 21 46  1  0  0  0  0
 22 47  1  0  0  0  0
 48 49  1  1  0  0  0
M  CHG  1  48   1
M  END
$$$$
