ZINC00402830
 OpenBabel08292219463D

 51 53  0  0  1  0  0  0  0  0999 V2000
    0.6413    1.2433    0.6138 C   0  0  0  0  0  0  0  0  0  0  0  0
    0.0098   -0.0075   -0.0006 C   0  0  1  0  0  0  0  0  0  0  0  0
    0.4805   -1.2275    0.7484 C   0  0  0  0  0  0  0  0  0  0  0  0
    0.6314   -1.1799    2.1216 C   0  0  0  0  0  0  0  0  0  0  0  0
    1.0632   -2.2990    2.8087 C   0  0  0  0  0  0  0  0  0  0  0  0
    1.3437   -3.4658    2.1225 C   0  0  0  0  0  0  0  0  0  0  0  0
    1.1919   -3.5137    0.7494 C   0  0  0  0  0  0  0  0  0  0  0  0
    0.7560   -2.3959    0.0628 C   0  0  0  0  0  0  0  0  0  0  0  0
   -1.4912    0.0905    0.0917 C   0  0  0  0  0  0  0  0  0  0  0  0
   -2.0961    0.2953    1.3177 C   0  0  0  0  0  0  0  0  0  0  0  0
   -3.4727    0.3853    1.4030 C   0  0  0  0  0  0  0  0  0  0  0  0
   -4.2453    0.2704    0.2611 C   0  0  0  0  0  0  0  0  0  0  0  0
   -3.6393    0.0654   -0.9657 C   0  0  0  0  0  0  0  0  0  0  0  0
   -2.2623   -0.0188   -1.0505 C   0  0  0  0  0  0  0  0  0  0  0  0
   -5.9743    0.3827    0.3675 Cl  0  0  0  0  0  0  0  0  0  0  0  0
    0.3968   -0.1118   -1.3722 O   0  0  0  0  0  0  0  0  0  0  0  0
    1.8104   -0.0885   -1.5807 C   0  0  0  0  0  0  0  0  0  0  0  0
    2.1117   -0.3310   -3.0610 C   0  0  0  0  0  0  0  0  0  0  0  0
    3.6251   -0.3061   -3.2841 C   0  0  1  0  0  0  0  0  0  0  0  0
    4.1157   -1.0311   -2.6347 H   0  0  0  0  0  0  0  0  0  0  0  0
    3.9563   -0.6007   -4.7684 C   0  0  0  0  0  0  0  0  0  0  0  0
    5.3480    0.0685   -4.9177 C   0  0  0  0  0  0  0  0  0  0  0  0
    5.2330    1.3151   -4.0153 C   0  0  0  0  0  0  0  0  0  0  0  0
    4.1595    1.0502   -3.0375 N   0  3  2  0  0  0  0  0  0  0  0  0
    4.6992    1.1285   -1.6735 C   0  0  0  0  0  0  0  0  0  0  0  0
    1.7269    1.1725    0.5470 H   0  0  0  0  0  0  0  0  0  0  0  0
    0.3008    2.1258    0.0720 H   0  0  0  0  0  0  0  0  0  0  0  0
    0.3460    1.3229    1.6600 H   0  0  0  0  0  0  0  0  0  0  0  0
    0.4123   -0.2683    2.6577 H   0  0  0  0  0  0  0  0  0  0  0  0
    1.1818   -2.2617    3.8815 H   0  0  0  0  0  0  0  0  0  0  0  0
    1.6817   -4.3400    2.6593 H   0  0  0  0  0  0  0  0  0  0  0  0
    1.4113   -4.4252    0.2133 H   0  0  0  0  0  0  0  0  0  0  0  0
    0.6338   -2.4343   -1.0095 H   0  0  0  0  0  0  0  0  0  0  0  0
   -1.4930    0.3847    2.2091 H   0  0  0  0  0  0  0  0  0  0  0  0
   -3.9452    0.5450    2.3610 H   0  0  0  0  0  0  0  0  0  0  0  0
   -4.2418   -0.0247   -1.8574 H   0  0  0  0  0  0  0  0  0  0  0  0
   -1.7889   -0.1740   -2.0087 H   0  0  0  0  0  0  0  0  0  0  0  0
    2.2054    0.8831   -1.2839 H   0  0  0  0  0  0  0  0  0  0  0  0
    2.2789   -0.8695   -0.9818 H   0  0  0  0  0  0  0  0  0  0  0  0
    1.7167   -1.3026   -3.3577 H   0  0  0  0  0  0  0  0  0  0  0  0
    1.6432    0.4500   -3.6598 H   0  0  0  0  0  0  0  0  0  0  0  0
    4.0177   -1.6738   -4.9492 H   0  0  0  0  0  0  0  0  0  0  0  0
    3.2264   -0.1357   -5.4310 H   0  0  0  0  0  0  0  0  0  0  0  0
    6.1351   -0.5951   -4.5597 H   0  0  0  0  0  0  0  0  0  0  0  0
    5.5275    0.3575   -5.9532 H   0  0  0  0  0  0  0  0  0  0  0  0
    6.1749    1.4830   -3.4932 H   0  0  0  0  0  0  0  0  0  0  0  0
    4.9801    2.1872   -4.6183 H   0  0  0  0  0  0  0  0  0  0  0  0
    5.4996    0.3978   -1.5570 H   0  0  0  0  0  0  0  0  0  0  0  0
    5.0921    2.1294   -1.4951 H   0  0  0  0  0  0  0  0  0  0  0  0
    3.9063    0.9163   -0.9563 H   0  0  0  0  0  0  0  0  0  0  0  0
    3.4231    1.7308   -3.1496 H   0  0  0  0  0  0  0  0  0  0  0  0
  1  2  1  0  0  0  0
  1 26  1  0  0  0  0
  1 27  1  0  0  0  0
  1 28  1  0  0  0  0
  2  3  1  0  0  0  0
  2  9  1  0  0  0  0
  2 16  1  6  0  0  0
  3  8  2  0  0  0  0
  3  4  1  0  0  0  0
  4  5  2  0  0  0  0
  4 29  1  0  0  0  0
  5  6  1  0  0  0  0
  5 30  1  0  0  0  0
  6  7  2  0  0  0  0
  6 31  1  0  0  0  0
  7  8  1  0  0  0  0
  7 32  1  0  0  0  0
  8 33  1  0  0  0  0
  9 14  2  0  0  0  0
  9 10  1  0  0  0  0
 10 11  2  0  0  0  0
 10 34  1  0  0  0  0
 11 12  1  0  0  0  0
 11 35  1  0  0  0  0
 12 13  2  0  0  0  0
 12 15  1  0  0  0  0
 13 14  1  0  0  0  0
 13 36  1  0  0  0  0
 14 37  1  0  0  0  0
 16 17  1  0  0  0  0
 17 18  1  0  0  0  0
 17 38  1  0  0  0  0
 17 39  1  0  0  0  0
 18 19  1  0  0  0  0
 18 40  1  0  0  0  0
 18 41  1  0  0  0  0
 19 20  1  1  0  0  0
 19 24  1  0  0  0  0
 19 21  1  0  0  0  0
 21 22  1  0  0  0  0
 21 42  1  0  0  0  0
 21 43  1  0  0  0  0
 22 23  1  0  0  0  0
 22 44  1  0  0  0  0
 22 45  1  0  0  0  0
 23 24  1  0  0  0  0
 23 46  1  0  0  0  0
 23 47  1  0  0  0  0
 24 25  1  0  0  0  0
 24 51  1  6  0  0  0
 25 48  1  0  0  0  0
 25 49  1  0  0  0  0
 25 50  1  0  0  0  0
M  CHG  1  24   1
M  END
$$$$
