ZINC00006300
 OpenBabel08292219463D

 38 40  0  0  0  0  0  0  0  0999 V2000
   -0.0197    1.5537   -0.0897 C   0  0  0  0  0  0  0  0  0  0  0  0
    0.0208    0.0249   -0.1328 C   0  0  0  0  0  0  0  0  0  0  0  0
   -1.3403   -0.5033   -0.0113 N   0  0  0  0  0  0  0  0  0  0  0  0
   -2.1433   -0.6368   -1.1496 C   0  0  0  0  0  0  0  0  0  0  0  0
   -1.5988   -0.4322   -2.4121 C   0  0  0  0  0  0  0  0  0  0  0  0
   -2.3874   -0.5628   -3.5398 C   0  0  0  0  0  0  0  0  0  0  0  0
   -3.7211   -0.8968   -3.4200 C   0  0  0  0  0  0  0  0  0  0  0  0
   -4.2778   -1.1045   -2.1563 C   0  0  0  0  0  0  0  0  0  0  0  0
   -3.4798   -0.9785   -1.0184 C   0  0  0  0  0  0  0  0  0  0  0  0
   -5.7053   -1.4617   -2.0248 C   0  0  0  0  0  0  0  0  0  0  0  0
   -6.0791   -2.6904   -1.5161 C   0  0  0  0  0  0  0  0  0  0  0  0
   -7.4365   -2.9946   -1.4060 C   0  0  0  0  0  0  0  0  0  0  0  0
   -8.3452   -2.1207   -1.7829 N   0  0  0  0  0  0  0  0  0  0  0  0
   -7.9996   -0.9308   -2.2756 C   0  0  0  0  0  0  0  0  0  0  0  0
   -6.6849   -0.5767   -2.4005 N   0  0  0  0  0  0  0  0  0  0  0  0
   -6.6307    0.7157   -2.9327 N   0  0  0  0  0  0  0  0  0  0  0  0
   -7.8457    1.1579   -3.1285 C   0  0  0  0  0  0  0  0  0  0  0  0
   -8.7576    0.1602   -2.7419 C   0  0  0  0  0  0  0  0  0  0  0  0
  -10.1861    0.2444   -2.7956 C   0  0  0  0  0  0  0  0  0  0  0  0
  -11.3194    0.3111   -2.8382 N   0  0  0  0  0  0  0  0  0  0  0  0
   -1.8191   -0.8606    1.1969 C   0  0  0  0  0  0  0  0  0  0  0  0
   -2.8989   -1.4059    1.2842 O   0  0  0  0  0  0  0  0  0  0  0  0
   -1.0127   -0.5825    2.4393 C   0  0  0  0  0  0  0  0  0  0  0  0
    0.9930    1.9467   -0.1802 H   0  0  0  0  0  0  0  0  0  0  0  0
   -0.6283    1.9245   -0.9145 H   0  0  0  0  0  0  0  0  0  0  0  0
   -0.4525    1.8792    0.8562 H   0  0  0  0  0  0  0  0  0  0  0  0
    0.4537   -0.3006   -1.0788 H   0  0  0  0  0  0  0  0  0  0  0  0
    0.6294   -0.3459    0.6919 H   0  0  0  0  0  0  0  0  0  0  0  0
   -0.5559   -0.1699   -2.5123 H   0  0  0  0  0  0  0  0  0  0  0  0
   -1.9585   -0.4025   -4.5179 H   0  0  0  0  0  0  0  0  0  0  0  0
   -4.3341   -0.9972   -4.3035 H   0  0  0  0  0  0  0  0  0  0  0  0
   -3.9036   -1.1423   -0.0386 H   0  0  0  0  0  0  0  0  0  0  0  0
   -5.3311   -3.4060   -1.2083 H   0  0  0  0  0  0  0  0  0  0  0  0
   -7.7427   -3.9516   -1.0100 H   0  0  0  0  0  0  0  0  0  0  0  0
   -8.1056    2.1263   -3.5299 H   0  0  0  0  0  0  0  0  0  0  0  0
   -0.0441   -0.1687    2.1587 H   0  0  0  0  0  0  0  0  0  0  0  0
   -1.5457    0.1327    3.0658 H   0  0  0  0  0  0  0  0  0  0  0  0
   -0.8652   -1.5104    2.9919 H   0  0  0  0  0  0  0  0  0  0  0  0
  1  2  1  0  0  0  0
  1 24  1  0  0  0  0
  1 25  1  0  0  0  0
  1 26  1  0  0  0  0
  2  3  1  0  0  0  0
  2 27  1  0  0  0  0
  2 28  1  0  0  0  0
  3  4  1  0  0  0  0
  3 21  1  0  0  0  0
  4  9  2  0  0  0  0
  4  5  1  0  0  0  0
  5  6  2  0  0  0  0
  5 29  1  0  0  0  0
  6  7  1  0  0  0  0
  6 30  1  0  0  0  0
  7  8  2  0  0  0  0
  7 31  1  0  0  0  0
  8  9  1  0  0  0  0
  8 10  1  0  0  0  0
  9 32  1  0  0  0  0
 10 15  1  0  0  0  0
 10 11  2  0  0  0  0
 11 12  1  0  0  0  0
 11 33  1  0  0  0  0
 12 13  2  0  0  0  0
 12 34  1  0  0  0  0
 13 14  1  0  0  0  0
 14 18  2  0  0  0  0
 14 15  1  0  0  0  0
 15 16  1  0  0  0  0
 16 17  2  0  0  0  0
 17 18  1  0  0  0  0
 17 35  1  0  0  0  0
 18 19  1  0  0  0  0
 19 20  3  0  0  0  0
 21 22  2  0  0  0  0
 21 23  1  0  0  0  0
 23 36  1  0  0  0  0
 23 37  1  0  0  0  0
 23 38  1  0  0  0  0
M  END
$$$$
