ZINC22448696
 OpenBabel08292219463D

 92 96  0  0  1  0  0  0  0  0999 V2000
   -5.5944    1.9794   -4.4560 C   0  0  0  0  0  0  0  0  0  0  0  0
   -7.1095    1.8351   -4.3001 C   0  0  0  0  0  0  0  0  0  0  0  0
   -7.6485    0.9076   -5.3910 C   0  0  0  0  0  0  0  0  0  0  0  0
   -7.7686    3.2099   -4.4280 C   0  0  0  0  0  0  0  0  0  0  0  0
   -7.4132    1.2686   -2.9836 N   0  0  0  0  0  0  0  0  0  0  0  0
   -7.0312    1.9180   -1.8661 C   0  0  0  0  0  0  0  0  0  0  0  0
   -6.4362    2.9714   -1.9503 O   0  0  0  0  0  0  0  0  0  0  0  0
   -7.3436    1.3353   -0.5119 C   0  0  2  0  0  0  0  0  0  0  0  0
   -7.2584    0.2393   -0.5522 H   0  0  0  0  0  0  0  0  0  0  0  0
   -8.7499    1.7619   -0.0845 C   0  0  0  0  0  0  0  0  0  0  0  0
   -9.0367    1.2246    1.2530 N   0  0  0  0  0  0  0  0  0  0  0  0
   -8.0593    1.7147    2.2349 C   0  0  0  0  0  0  0  0  0  0  0  0
   -6.6530    1.2881    1.8075 C   0  0  0  0  0  0  0  0  0  0  0  0
   -6.3662    1.8253    0.4700 N   0  0  0  0  0  0  0  0  0  0  0  0
   -4.9950    1.5005    0.0551 C   0  0  0  0  0  0  0  0  0  0  0  0
   -4.8435   -0.0176   -0.0614 C   0  0  2  0  0  0  0  0  0  0  0  0
   -5.2277   -0.5268    0.8347 H   0  0  0  0  0  0  0  0  0  0  0  0
   -3.3746   -0.3659   -0.3105 C   0  0  0  0  0  0  0  0  0  0  0  0
   -3.1905   -1.8829   -0.2356 C   0  0  1  0  0  0  0  0  0  0  0  0
   -3.5986   -2.2628    0.7126 H   0  0  0  0  0  0  0  0  0  0  0  0
   -3.9105   -2.5428   -1.4133 C   0  0  0  0  0  0  0  0  0  0  0  0
   -3.7727   -4.0400   -1.3112 C   0  0  0  0  0  0  0  0  0  0  0  0
   -2.7920   -4.6947   -2.0327 C   0  0  0  0  0  0  0  0  0  0  0  0
   -2.6631   -6.0676   -1.9360 C   0  0  0  0  0  0  0  0  0  0  0  0
   -3.5202   -6.7868   -1.1241 C   0  0  0  0  0  0  0  0  0  0  0  0
   -4.5042   -6.1327   -0.4066 C   0  0  0  0  0  0  0  0  0  0  0  0
   -4.6306   -4.7594   -0.5003 C   0  0  0  0  0  0  0  0  0  0  0  0
   -1.7215   -2.2142   -0.2954 C   0  0  0  0  0  0  0  0  0  0  0  0
   -1.1623   -2.2994   -1.3683 O   0  0  0  0  0  0  0  0  0  0  0  0
   -1.0292   -2.4157    0.8432 N   0  0  0  0  0  0  0  0  0  0  0  0
    0.4184   -2.6342    0.7914 C   0  0  1  0  0  0  0  0  0  0  0  0
    0.5830   -3.2135   -0.1291 H   0  0  0  0  0  0  0  0  0  0  0  0
    1.1496   -1.3089    0.7777 C   0  0  0  0  0  0  0  0  0  0  0  0
    1.3596   -0.4103   -0.2550 C   0  0  0  0  0  0  0  0  0  0  0  0
    2.0677    0.7539   -0.0302 C   0  0  0  0  0  0  0  0  0  0  0  0
    2.5692    1.0240    1.2296 C   0  0  0  0  0  0  0  0  0  0  0  0
    2.3607    0.1292    2.2607 C   0  0  0  0  0  0  0  0  0  0  0  0
    1.6508   -1.0388    2.0372 C   0  0  0  0  0  0  0  0  0  0  0  0
    1.2906   -2.1640    2.9835 C   0  0  0  0  0  0  0  0  0  0  0  0
    0.8987   -3.3473    2.0733 C   0  0  1  0  0  0  0  0  0  0  0  0
    1.6739   -4.1143    1.9295 H   0  0  0  0  0  0  0  0  0  0  0  0
   -0.1598   -4.1089    2.6578 O   0  0  0  0  0  0  0  0  0  0  0  0
   -5.6371   -0.4932   -1.1505 O   0  0  0  0  0  0  0  0  0  0  0  0
  -10.4079    1.5495    1.6679 C   0  0  0  0  0  0  0  0  0  0  0  0
  -10.7471    0.7868    2.9226 C   0  0  0  0  0  0  0  0  0  0  0  0
  -11.3252   -0.4713    2.8450 C   0  0  0  0  0  0  0  0  0  0  0  0
  -11.6158   -1.1378    4.0252 C   0  0  0  0  0  0  0  0  0  0  0  0
  -11.3308   -0.5265    5.2317 C   0  0  0  0  0  0  0  0  0  0  0  0
  -10.7852    0.6734    5.2676 N   0  0  0  0  0  0  0  0  0  0  0  0
  -10.4912    1.3347    4.1651 C   0  0  0  0  0  0  0  0  0  0  0  0
   -5.2070    2.6463   -3.6716 H   0  0  0  0  0  0  0  0  0  0  0  0
   -5.3664    2.4047   -5.4445 H   0  0  0  0  0  0  0  0  0  0  0  0
   -5.1206    0.9910   -4.3639 H   0  0  0  0  0  0  0  0  0  0  0  0
   -8.7378    0.8039   -5.2788 H   0  0  0  0  0  0  0  0  0  0  0  0
   -7.1747   -0.0808   -5.2990 H   0  0  0  0  0  0  0  0  0  0  0  0
   -7.4205    1.3329   -6.3795 H   0  0  0  0  0  0  0  0  0  0  0  0
   -8.8579    3.1061   -4.3159 H   0  0  0  0  0  0  0  0  0  0  0  0
   -7.5406    3.6353   -5.4165 H   0  0  0  0  0  0  0  0  0  0  0  0
   -7.3811    3.8767   -3.6436 H   0  0  0  0  0  0  0  0  0  0  0  0
   -7.9530    0.3132   -2.9072 H   0  0  0  0  0  0  0  0  0  0  0  0
   -8.8083    2.8601   -0.0598 H   0  0  0  0  0  0  0  0  0  0  0  0
   -9.4857    1.3717   -0.8030 H   0  0  0  0  0  0  0  0  0  0  0  0
   -8.1106    2.8123    2.2869 H   0  0  0  0  0  0  0  0  0  0  0  0
   -8.2879    1.2897    3.2234 H   0  0  0  0  0  0  0  0  0  0  0  0
   -5.9172    1.6784    2.5260 H   0  0  0  0  0  0  0  0  0  0  0  0
   -6.5945    0.1899    1.7829 H   0  0  0  0  0  0  0  0  0  0  0  0
   -4.7870    1.9657   -0.9198 H   0  0  0  0  0  0  0  0  0  0  0  0
   -4.2851    1.8835    0.8030 H   0  0  0  0  0  0  0  0  0  0  0  0
   -3.0772   -0.0092   -1.3077 H   0  0  0  0  0  0  0  0  0  0  0  0
   -2.7484    0.1177    0.4537 H   0  0  0  0  0  0  0  0  0  0  0  0
   -4.9760   -2.2703   -1.3909 H   0  0  0  0  0  0  0  0  0  0  0  0
   -3.4633   -2.1969   -2.3569 H   0  0  0  0  0  0  0  0  0  0  0  0
   -2.1247   -4.1332   -2.6697 H   0  0  0  0  0  0  0  0  0  0  0  0
   -1.8946   -6.5787   -2.4969 H   0  0  0  0  0  0  0  0  0  0  0  0
   -3.4212   -7.8597   -1.0507 H   0  0  0  0  0  0  0  0  0  0  0  0
   -5.1739   -6.6947    0.2274 H   0  0  0  0  0  0  0  0  0  0  0  0
   -5.3993   -4.2484    0.0603 H   0  0  0  0  0  0  0  0  0  0  0  0
   -1.5512   -2.4161    1.8115 H   0  0  0  0  0  0  0  0  0  0  0  0
    0.9686   -0.6208   -1.2395 H   0  0  0  0  0  0  0  0  0  0  0  0
    2.2298    1.4524   -0.8377 H   0  0  0  0  0  0  0  0  0  0  0  0
    3.1237    1.9336    1.4070 H   0  0  0  0  0  0  0  0  0  0  0  0
    2.7527    0.3409    3.2445 H   0  0  0  0  0  0  0  0  0  0  0  0
    2.1602   -2.4074    3.6116 H   0  0  0  0  0  0  0  0  0  0  0  0
    0.4524   -1.8509    3.6233 H   0  0  0  0  0  0  0  0  0  0  0  0
    0.0183   -4.6798    3.5810 H   0  0  0  0  0  0  0  0  0  0  0  0
   -5.6555   -1.5667   -1.3900 H   0  0  0  0  0  0  0  0  0  0  0  0
  -10.4859    2.6293    1.8628 H   0  0  0  0  0  0  0  0  0  0  0  0
  -11.1091    1.2697    0.8679 H   0  0  0  0  0  0  0  0  0  0  0  0
  -11.5404   -0.9227    1.8877 H   0  0  0  0  0  0  0  0  0  0  0  0
  -12.0630   -2.1206    4.0023 H   0  0  0  0  0  0  0  0  0  0  0  0
  -11.5579   -1.0374    6.1558 H   0  0  0  0  0  0  0  0  0  0  0  0
  -10.0449    2.3158    4.2342 H   0  0  0  0  0  0  0  0  0  0  0  0
  1  2  1  0  0  0  0
  1 51  1  0  0  0  0
  1 52  1  0  0  0  0
  1 53  1  0  0  0  0
  2  3  1  0  0  0  0
  2  4  1  0  0  0  0
  2  5  1  0  0  0  0
  3 54  1  0  0  0  0
  3 55  1  0  0  0  0
  3 56  1  0  0  0  0
  4 57  1  0  0  0  0
  4 58  1  0  0  0  0
  4 59  1  0  0  0  0
  5  6  1  0  0  0  0
  5 60  1  0  0  0  0
  6  7  2  0  0  0  0
  6  8  1  0  0  0  0
  8  9  1  6  0  0  0
  8 14  1  0  0  0  0
  8 10  1  0  0  0  0
 10 11  1  0  0  0  0
 10 61  1  0  0  0  0
 10 62  1  0  0  0  0
 11 12  1  0  0  0  0
 11 44  1  0  0  0  0
 12 13  1  0  0  0  0
 12 63  1  0  0  0  0
 12 64  1  0  0  0  0
 13 14  1  0  0  0  0
 13 65  1  0  0  0  0
 13 66  1  0  0  0  0
 14 15  1  0  0  0  0
 15 16  1  0  0  0  0
 15 67  1  0  0  0  0
 15 68  1  0  0  0  0
 16 17  1  1  0  0  0
 16 18  1  0  0  0  0
 16 43  1  0  0  0  0
 18 19  1  0  0  0  0
 18 69  1  0  0  0  0
 18 70  1  0  0  0  0
 19 20  1  1  0  0  0
 19 21  1  0  0  0  0
 19 28  1  0  0  0  0
 21 22  1  0  0  0  0
 21 71  1  0  0  0  0
 21 72  1  0  0  0  0
 22 27  2  0  0  0  0
 22 23  1  0  0  0  0
 23 24  2  0  0  0  0
 23 73  1  0  0  0  0
 24 25  1  0  0  0  0
 24 74  1  0  0  0  0
 25 26  2  0  0  0  0
 25 75  1  0  0  0  0
 26 27  1  0  0  0  0
 26 76  1  0  0  0  0
 27 77  1  0  0  0  0
 28 29  2  0  0  0  0
 28 30  1  0  0  0  0
 30 31  1  0  0  0  0
 30 78  1  0  0  0  0
 31 32  1  6  0  0  0
 31 40  1  0  0  0  0
 31 33  1  0  0  0  0
 33 38  2  0  0  0  0
 33 34  1  0  0  0  0
 34 35  2  0  0  0  0
 34 79  1  0  0  0  0
 35 36  1  0  0  0  0
 35 80  1  0  0  0  0
 36 37  2  0  0  0  0
 36 81  1  0  0  0  0
 37 38  1  0  0  0  0
 37 82  1  0  0  0  0
 38 39  1  0  0  0  0
 39 40  1  0  0  0  0
 39 83  1  0  0  0  0
 39 84  1  0  0  0  0
 40 41  1  6  0  0  0
 40 42  1  0  0  0  0
 42 85  1  0  0  0  0
 43 86  1  0  0  0  0
 44 45  1  0  0  0  0
 44 87  1  0  0  0  0
 44 88  1  0  0  0  0
 45 50  2  0  0  0  0
 45 46  1  0  0  0  0
 46 47  2  0  0  0  0
 46 89  1  0  0  0  0
 47 48  1  0  0  0  0
 47 90  1  0  0  0  0
 48 49  2  0  0  0  0
 48 91  1  0  0  0  0
 49 50  1  0  0  0  0
 50 92  1  0  0  0  0
M  END
$$$$
