ZINC03782818
 OpenBabel08292219463D

 51 55  0  0  0  0  0  0  0  0999 V2000
    0.0895   -5.1806   -0.3315 C   0  0  0  0  0  0  0  0  0  0  0  0
    0.1330   -3.6520   -0.2848 C   0  0  0  0  0  0  0  0  0  0  0  0
    0.3156   -3.1400   -1.6063 O   0  0  0  0  0  0  0  0  0  0  0  0
    0.3760   -1.7953   -1.7411 C   0  0  0  0  0  0  0  0  0  0  0  0
    0.2859   -0.9373   -0.7589 N   0  0  0  0  0  0  0  0  0  0  0  0
    0.3865    0.3269   -1.2500 C   0  0  0  0  0  0  0  0  0  0  0  0
    0.3563    1.5910   -0.6579 C   0  0  0  0  0  0  0  0  0  0  0  0
    0.4862    2.7237   -1.4351 C   0  0  0  0  0  0  0  0  0  0  0  0
    0.6472    2.6260   -2.8039 C   0  0  0  0  0  0  0  0  0  0  0  0
    0.6807    1.3733   -3.4209 C   0  0  0  0  0  0  0  0  0  0  0  0
    0.5501    0.2157   -2.6400 C   0  0  0  0  0  0  0  0  0  0  0  0
    0.5458   -1.1324   -2.9221 N   0  0  0  0  0  0  0  0  0  0  0  0
    0.6925   -1.7423   -4.2461 C   0  0  0  0  0  0  0  0  0  0  0  0
    2.1231   -2.1719   -4.4455 C   0  0  0  0  0  0  0  0  0  0  0  0
    3.1417   -1.4986   -3.7952 C   0  0  0  0  0  0  0  0  0  0  0  0
    4.4536   -1.8875   -3.9739 C   0  0  0  0  0  0  0  0  0  0  0  0
    4.7516   -2.9612   -4.8119 C   0  0  0  0  0  0  0  0  0  0  0  0
    3.7208   -3.6359   -5.4646 C   0  0  0  0  0  0  0  0  0  0  0  0
    2.4122   -3.2416   -5.2737 C   0  0  0  0  0  0  0  0  0  0  0  0
    6.1587   -3.3834   -5.0084 C   0  0  0  0  0  0  0  0  0  0  0  0
    7.1331   -2.4432   -5.3319 C   0  0  0  0  0  0  0  0  0  0  0  0
    8.4423   -2.8406   -5.5141 C   0  0  0  0  0  0  0  0  0  0  0  0
    8.7960   -4.1725   -5.3770 C   0  0  0  0  0  0  0  0  0  0  0  0
    7.8438   -5.1182   -5.0567 C   0  0  0  0  0  0  0  0  0  0  0  0
    6.5180   -4.7340   -4.8635 C   0  0  0  0  0  0  0  0  0  0  0  0
    5.4946   -5.7426   -4.5146 C   0  0  0  0  0  0  0  0  0  0  0  0
    4.1937   -5.5236   -4.3126 N   0  0  0  0  0  2  0  0  0  0  0  0
    3.6493   -6.6577   -4.0308 N   0  0  0  0  0  0  0  0  0  0  0  0
    4.5498   -7.5771   -4.0472 N   0  0  0  0  0  0  0  0  0  0  0  0
    5.6889   -7.0521   -4.3454 N   0  0  0  0  0  0  0  0  0  0  0  0
    0.8512    1.2690   -4.8788 C   0  0  0  0  0  0  0  0  0  0  0  0
    0.3623    2.1159   -5.6140 O   0  0  0  0  0  0  0  0  0  0  0  0
    1.4820    0.3354   -5.3557 O   0  0  0  0  0  1  0  0  0  0  0  0
   -0.7389   -5.5014   -0.9632 H   0  0  0  0  0  0  0  0  0  0  0  0
    1.0262   -5.5584   -0.7413 H   0  0  0  0  0  0  0  0  0  0  0  0
   -0.0498   -5.5712    0.6765 H   0  0  0  0  0  0  0  0  0  0  0  0
   -0.8038   -3.2742    0.1250 H   0  0  0  0  0  0  0  0  0  0  0  0
    0.9614   -3.3312    0.3469 H   0  0  0  0  0  0  0  0  0  0  0  0
    0.2307    1.6824    0.4109 H   0  0  0  0  0  0  0  0  0  0  0  0
    0.4613    3.6973   -0.9684 H   0  0  0  0  0  0  0  0  0  0  0  0
    0.7472    3.5217   -3.3991 H   0  0  0  0  0  0  0  0  0  0  0  0
    0.0385   -2.6111   -4.3204 H   0  0  0  0  0  0  0  0  0  0  0  0
    0.4209   -1.0165   -5.0126 H   0  0  0  0  0  0  0  0  0  0  0  0
    2.9097   -0.6668   -3.1466 H   0  0  0  0  0  0  0  0  0  0  0  0
    5.2480   -1.3609   -3.4660 H   0  0  0  0  0  0  0  0  0  0  0  0
    3.9457   -4.4684   -6.1149 H   0  0  0  0  0  0  0  0  0  0  0  0
    1.6126   -3.7663   -5.7753 H   0  0  0  0  0  0  0  0  0  0  0  0
    6.8645   -1.4028   -5.4408 H   0  0  0  0  0  0  0  0  0  0  0  0
    9.1954   -2.1084   -5.7653 H   0  0  0  0  0  0  0  0  0  0  0  0
    9.8233   -4.4727   -5.5221 H   0  0  0  0  0  0  0  0  0  0  0  0
    8.1264   -6.1553   -4.9517 H   0  0  0  0  0  0  0  0  0  0  0  0
  1  2  1  0  0  0  0
  1 34  1  0  0  0  0
  1 35  1  0  0  0  0
  1 36  1  0  0  0  0
  2  3  1  0  0  0  0
  2 37  1  0  0  0  0
  2 38  1  0  0  0  0
  3  4  1  0  0  0  0
  4 12  1  0  0  0  0
  4  5  2  0  0  0  0
  5  6  1  0  0  0  0
  6 11  2  0  0  0  0
  6  7  1  0  0  0  0
  7  8  2  0  0  0  0
  7 39  1  0  0  0  0
  8  9  1  0  0  0  0
  8 40  1  0  0  0  0
  9 10  2  0  0  0  0
  9 41  1  0  0  0  0
 10 11  1  0  0  0  0
 10 31  1  0  0  0  0
 11 12  1  0  0  0  0
 12 13  1  0  0  0  0
 13 14  1  0  0  0  0
 13 42  1  0  0  0  0
 13 43  1  0  0  0  0
 14 19  2  0  0  0  0
 14 15  1  0  0  0  0
 15 16  2  0  0  0  0
 15 44  1  0  0  0  0
 16 17  1  0  0  0  0
 16 45  1  0  0  0  0
 17 18  2  0  0  0  0
 17 20  1  0  0  0  0
 18 19  1  0  0  0  0
 18 46  1  0  0  0  0
 19 47  1  0  0  0  0
 20 25  2  0  0  0  0
 20 21  1  0  0  0  0
 21 22  2  0  0  0  0
 21 48  1  0  0  0  0
 22 23  1  0  0  0  0
 22 49  1  0  0  0  0
 23 24  2  0  0  0  0
 23 50  1  0  0  0  0
 24 25  1  0  0  0  0
 24 51  1  0  0  0  0
 25 26  1  0  0  0  0
 26 30  2  0  0  0  0
 26 27  1  0  0  0  0
 27 28  1  0  0  0  0
 28 29  2  0  0  0  0
 29 30  1  0  0  0  0
 31 32  2  0  0  0  0
 31 33  1  0  0  0  0
M  END
$$$$
