ZINC14879959
 OpenBabel08292219463D

 98 99  0  0  1  0  0  0  0  0999 V2000
   -2.1447   -1.7746   -1.9390 C   0  0  0  0  0  0  0  0  0  0  0  0
   -1.0305   -1.5960   -0.9401 C   0  0  0  0  0  0  0  0  0  0  0  0
   -1.1180   -0.5950   -0.0802 C   0  0  0  0  0  0  0  0  0  0  0  0
   -0.0775   -0.2973    0.9600 C   0  0  0  0  0  0  0  0  0  0  0  0
    0.8289   -1.5134    1.1611 C   0  0  0  0  0  0  0  0  0  0  0  0
    1.3120   -1.9939   -0.2127 C   0  0  2  0  0  0  0  0  0  0  0  0
    1.7334   -1.1551   -0.7666 H   0  0  0  0  0  0  0  0  0  0  0  0
    0.1129   -2.5679   -0.9732 C   0  0  0  0  0  0  0  0  0  0  0  0
    2.3064   -3.0064   -0.0448 O   0  0  0  0  0  0  0  0  0  0  0  0
    0.7669    0.8951    0.5060 C   0  0  0  0  0  0  0  0  0  0  0  0
   -0.7660    0.0464    2.2823 C   0  0  0  0  0  0  0  0  0  0  0  0
   -2.2585    0.2444   -0.1447 C   0  0  0  0  0  0  0  0  0  0  0  0
   -3.5021   -0.2875   -0.0124 C   0  0  0  0  0  0  0  0  0  0  0  0
   -4.6277    0.5544    0.0125 C   0  0  0  0  0  0  0  0  0  0  0  0
   -5.8767    0.0201    0.1454 C   0  0  0  0  0  0  0  0  0  0  0  0
   -6.9990    0.8595    0.1702 C   0  0  0  0  0  0  0  0  0  0  0  0
   -8.2590    0.3206    0.3042 C   0  0  0  0  0  0  0  0  0  0  0  0
   -9.3800    1.1590    0.3290 C   0  0  0  0  0  0  0  0  0  0  0  0
  -10.6409    0.6197    0.4631 C   0  0  0  0  0  0  0  0  0  0  0  0
  -11.7615    1.4578    0.4879 C   0  0  0  0  0  0  0  0  0  0  0  0
  -13.0223    0.9185    0.6221 C   0  0  0  0  0  0  0  0  0  0  0  0
  -14.1433    1.7569    0.6469 C   0  0  0  0  0  0  0  0  0  0  0  0
  -15.4033    1.2180    0.7809 C   0  0  0  0  0  0  0  0  0  0  0  0
  -15.5757   -0.2743    0.9009 C   0  0  0  0  0  0  0  0  0  0  0  0
  -16.5256    2.0574    0.8057 C   0  0  0  0  0  0  0  0  0  0  0  0
  -17.7746    1.5232    0.9386 C   0  0  0  0  0  0  0  0  0  0  0  0
  -18.9002    2.3650    0.9635 C   0  0  0  0  0  0  0  0  0  0  0  0
  -20.1438    1.8331    1.0958 C   0  0  0  0  0  0  0  0  0  0  0  0
  -20.3162    0.3408    1.2158 C   0  0  0  0  0  0  0  0  0  0  0  0
  -21.2789    2.6821    1.1209 C   0  0  0  0  0  0  0  0  0  0  0  0
  -22.5019    2.1589    1.2510 C   0  0  0  0  0  0  0  0  0  0  0  0
  -23.7085    3.0614    1.2777 C   0  0  2  0  0  0  0  0  0  0  0  0
  -23.3865    4.0981    1.1790 H   0  0  0  0  0  0  0  0  0  0  0  0
  -24.4314    2.8870    2.5812 C   0  0  0  0  0  0  0  0  0  0  0  0
  -25.5236    2.2062    2.7193 C   0  0  0  0  0  0  0  0  0  0  0  0
  -26.2249    1.5041    1.5935 C   0  0  1  0  0  0  0  0  0  0  0  0
  -27.0949    2.0866    1.2906 H   0  0  0  0  0  0  0  0  0  0  0  0
  -25.2796    1.3465    0.4005 C   0  0  0  0  0  0  0  0  0  0  0  0
  -24.6345    2.7048    0.1128 C   0  0  0  0  0  0  0  0  0  0  0  0
  -25.7218    3.7723   -0.0253 C   0  0  0  0  0  0  0  0  0  0  0  0
  -23.8234    2.6202   -1.1817 C   0  0  0  0  0  0  0  0  0  0  0  0
  -26.6492    0.2120    2.0322 O   0  0  0  0  0  0  0  0  0  0  0  0
  -23.8493    3.5450    3.8056 C   0  0  0  0  0  0  0  0  0  0  0  0
   -9.2076    2.6513    0.2090 C   0  0  0  0  0  0  0  0  0  0  0  0
   -4.4553    2.0467   -0.1075 C   0  0  0  0  0  0  0  0  0  0  0  0
   -1.8877   -2.5773   -2.6302 H   0  0  0  0  0  0  0  0  0  0  0  0
   -3.0659   -2.0280   -1.4143 H   0  0  0  0  0  0  0  0  0  0  0  0
   -2.2863   -0.8478   -2.4949 H   0  0  0  0  0  0  0  0  0  0  0  0
    1.6863   -1.2338    1.7734 H   0  0  0  0  0  0  0  0  0  0  0  0
    0.2694   -2.3100    1.6517 H   0  0  0  0  0  0  0  0  0  0  0  0
   -0.1965   -3.5058   -0.5119 H   0  0  0  0  0  0  0  0  0  0  0  0
    0.3992   -2.7539   -2.0084 H   0  0  0  0  0  0  0  0  0  0  0  0
    2.6562   -3.3557   -0.8759 H   0  0  0  0  0  0  0  0  0  0  0  0
    0.1246    1.7657    0.3736 H   0  0  0  0  0  0  0  0  0  0  0  0
    1.5232    1.1128    1.2601 H   0  0  0  0  0  0  0  0  0  0  0  0
    1.2545    0.6562   -0.4391 H   0  0  0  0  0  0  0  0  0  0  0  0
   -1.3035   -0.8277    2.6500 H   0  0  0  0  0  0  0  0  0  0  0  0
   -0.0167    0.3468    3.0148 H   0  0  0  0  0  0  0  0  0  0  0  0
   -1.4683    0.8649    2.1243 H   0  0  0  0  0  0  0  0  0  0  0  0
   -2.1391    1.3067   -0.2990 H   0  0  0  0  0  0  0  0  0  0  0  0
   -3.6256   -1.3570    0.0736 H   0  0  0  0  0  0  0  0  0  0  0  0
   -6.0003   -1.0493    0.2314 H   0  0  0  0  0  0  0  0  0  0  0  0
   -6.8755    1.9290    0.0842 H   0  0  0  0  0  0  0  0  0  0  0  0
   -8.3825   -0.7488    0.3902 H   0  0  0  0  0  0  0  0  0  0  0  0
  -10.7644   -0.4497    0.5492 H   0  0  0  0  0  0  0  0  0  0  0  0
  -11.6379    2.5273    0.4019 H   0  0  0  0  0  0  0  0  0  0  0  0
  -13.1459   -0.1509    0.7081 H   0  0  0  0  0  0  0  0  0  0  0  0
  -14.0198    2.8264    0.5608 H   0  0  0  0  0  0  0  0  0  0  0  0
  -15.5398   -0.5608    1.9520 H   0  0  0  0  0  0  0  0  0  0  0  0
  -16.5375   -0.5641    0.4779 H   0  0  0  0  0  0  0  0  0  0  0  0
  -14.7743   -0.7773    0.3597 H   0  0  0  0  0  0  0  0  0  0  0  0
  -16.4021    3.1269    0.7197 H   0  0  0  0  0  0  0  0  0  0  0  0
  -17.8982    0.4537    1.0246 H   0  0  0  0  0  0  0  0  0  0  0  0
  -18.7767    3.4345    0.8775 H   0  0  0  0  0  0  0  0  0  0  0  0
  -20.2804    0.0543    2.2669 H   0  0  0  0  0  0  0  0  0  0  0  0
  -21.2781    0.0510    0.7928 H   0  0  0  0  0  0  0  0  0  0  0  0
  -19.5149   -0.1622    0.6746 H   0  0  0  0  0  0  0  0  0  0  0  0
  -21.1553    3.7515    1.0349 H   0  0  0  0  0  0  0  0  0  0  0  0
  -22.6254    1.0895    1.3370 H   0  0  0  0  0  0  0  0  0  0  0  0
  -25.9570    2.1389    3.7062 H   0  0  0  0  0  0  0  0  0  0  0  0
  -24.5062    0.6167    0.6397 H   0  0  0  0  0  0  0  0  0  0  0  0
  -25.8429    1.0153   -0.4720 H   0  0  0  0  0  0  0  0  0  0  0  0
  -25.2584    4.7405   -0.2148 H   0  0  0  0  0  0  0  0  0  0  0  0
  -26.3797    3.5155   -0.8556 H   0  0  0  0  0  0  0  0  0  0  0  0
  -26.3020    3.8213    0.8962 H   0  0  0  0  0  0  0  0  0  0  0  0
  -23.0568    1.8520   -1.0806 H   0  0  0  0  0  0  0  0  0  0  0  0
  -24.4855    2.3661   -2.0094 H   0  0  0  0  0  0  0  0  0  0  0  0
  -23.3500    3.5824   -1.3773 H   0  0  0  0  0  0  0  0  0  0  0  0
  -27.2599    0.2321    2.7817 H   0  0  0  0  0  0  0  0  0  0  0  0
  -24.2600    4.5494    3.9083 H   0  0  0  0  0  0  0  0  0  0  0  0
  -24.1012    2.9573    4.6884 H   0  0  0  0  0  0  0  0  0  0  0  0
  -22.7655    3.6041    3.7057 H   0  0  0  0  0  0  0  0  0  0  0  0
   -9.2434    2.9378   -0.8421 H   0  0  0  0  0  0  0  0  0  0  0  0
  -10.0089    3.1543    0.7502 H   0  0  0  0  0  0  0  0  0  0  0  0
   -8.2457    2.9412    0.6320 H   0  0  0  0  0  0  0  0  0  0  0  0
   -4.4912    2.3332   -1.1586 H   0  0  0  0  0  0  0  0  0  0  0  0
   -5.2567    2.5497    0.4337 H   0  0  0  0  0  0  0  0  0  0  0  0
   -3.4935    2.3365    0.3155 H   0  0  0  0  0  0  0  0  0  0  0  0
  1  2  1  0  0  0  0
  1 46  1  0  0  0  0
  1 47  1  0  0  0  0
  1 48  1  0  0  0  0
  2  8  1  0  0  0  0
  2  3  2  0  0  0  0
  3  4  1  0  0  0  0
  3 12  1  0  0  0  0
  4  5  1  0  0  0  0
  4 10  1  0  0  0  0
  4 11  1  0  0  0  0
  5  6  1  0  0  0  0
  5 49  1  0  0  0  0
  5 50  1  0  0  0  0
  6  7  1  6  0  0  0
  6  8  1  0  0  0  0
  6  9  1  0  0  0  0
  8 51  1  0  0  0  0
  8 52  1  0  0  0  0
  9 53  1  0  0  0  0
 10 54  1  0  0  0  0
 10 55  1  0  0  0  0
 10 56  1  0  0  0  0
 11 57  1  0  0  0  0
 11 58  1  0  0  0  0
 11 59  1  0  0  0  0
 12 13  2  0  0  0  0
 12 60  1  0  0  0  0
 13 14  1  0  0  0  0
 13 61  1  0  0  0  0
 14 15  2  0  0  0  0
 14 45  1  0  0  0  0
 15 16  1  0  0  0  0
 15 62  1  0  0  0  0
 16 17  2  0  0  0  0
 16 63  1  0  0  0  0
 17 18  1  0  0  0  0
 17 64  1  0  0  0  0
 18 19  2  0  0  0  0
 18 44  1  0  0  0  0
 19 20  1  0  0  0  0
 19 65  1  0  0  0  0
 20 21  2  0  0  0  0
 20 66  1  0  0  0  0
 21 22  1  0  0  0  0
 21 67  1  0  0  0  0
 22 23  2  0  0  0  0
 22 68  1  0  0  0  0
 23 24  1  0  0  0  0
 23 25  1  0  0  0  0
 24 69  1  0  0  0  0
 24 70  1  0  0  0  0
 24 71  1  0  0  0  0
 25 26  2  0  0  0  0
 25 72  1  0  0  0  0
 26 27  1  0  0  0  0
 26 73  1  0  0  0  0
 27 28  2  0  0  0  0
 27 74  1  0  0  0  0
 28 29  1  0  0  0  0
 28 30  1  0  0  0  0
 29 75  1  0  0  0  0
 29 76  1  0  0  0  0
 29 77  1  0  0  0  0
 30 31  2  0  0  0  0
 30 78  1  0  0  0  0
 31 32  1  0  0  0  0
 31 79  1  0  0  0  0
 32 33  1  6  0  0  0
 32 39  1  0  0  0  0
 32 34  1  0  0  0  0
 34 35  2  0  0  0  0
 34 43  1  0  0  0  0
 35 36  1  0  0  0  0
 35 80  1  0  0  0  0
 36 37  1  6  0  0  0
 36 38  1  0  0  0  0
 36 42  1  0  0  0  0
 38 39  1  0  0  0  0
 38 81  1  0  0  0  0
 38 82  1  0  0  0  0
 39 40  1  0  0  0  0
 39 41  1  0  0  0  0
 40 83  1  0  0  0  0
 40 84  1  0  0  0  0
 40 85  1  0  0  0  0
 41 86  1  0  0  0  0
 41 87  1  0  0  0  0
 41 88  1  0  0  0  0
 42 89  1  0  0  0  0
 43 90  1  0  0  0  0
 43 91  1  0  0  0  0
 43 92  1  0  0  0  0
 44 93  1  0  0  0  0
 44 94  1  0  0  0  0
 44 95  1  0  0  0  0
 45 96  1  0  0  0  0
 45 97  1  0  0  0  0
 45 98  1  0  0  0  0
M  END
$$$$
