ZINC00002092
 OpenBabel08292219463D

 34 35  0  0  0  0  0  0  0  0999 V2000
   -0.0187    1.5258    0.0104 C   0  0  0  0  0  0  0  0  0  0  0  0
    0.0021   -0.0041    0.0020 C   0  0  0  0  0  0  0  0  0  0  0  0
    0.6878   -0.4765   -1.2033 N   0  0  0  0  0  0  0  0  0  0  0  0
   -0.0234   -0.7005   -2.3439 C   0  0  0  0  0  0  0  0  0  0  0  0
    0.6218   -1.1367   -3.4516 C   0  0  0  0  0  0  0  0  0  0  0  0
    2.0148   -1.3470   -3.3925 C   0  0  0  0  0  0  0  0  0  0  0  0
    2.6654   -1.1155   -2.2598 N   0  0  0  0  0  0  0  0  0  0  0  0
    2.0175   -0.6818   -1.1799 C   0  0  0  0  0  0  0  0  0  0  0  0
    2.6390   -0.4713   -0.1516 O   0  0  0  0  0  0  0  0  0  0  0  0
    2.6952   -1.7903   -4.5028 N   0  0  0  0  0  0  0  0  0  0  0  0
    4.3312   -2.0358   -4.4281 S   0  0  0  0  0  0  0  0  0  0  0  0
    4.7293   -2.5116   -5.7065 O   0  0  0  0  0  0  0  0  0  0  0  0
    4.8907   -0.8686   -3.8415 O   0  0  0  0  0  0  0  0  0  0  0  0
    4.6089   -3.3532   -3.2915 C   0  0  0  0  0  0  0  0  0  0  0  0
    4.7897   -3.0789   -1.9483 C   0  0  0  0  0  0  0  0  0  0  0  0
    5.0076   -4.1091   -1.0547 C   0  0  0  0  0  0  0  0  0  0  0  0
    5.0451   -5.4221   -1.5066 C   0  0  0  0  0  0  0  0  0  0  0  0
    4.8631   -5.6941   -2.8566 C   0  0  0  0  0  0  0  0  0  0  0  0
    4.6400   -4.6596   -3.7439 C   0  0  0  0  0  0  0  0  0  0  0  0
    5.2657   -6.4664   -0.6057 N   0  0  0  0  0  0  0  0  0  0  0  0
    1.0039    1.9031    0.0027 H   0  0  0  0  0  0  0  0  0  0  0  0
   -0.5459    1.8868   -0.8726 H   0  0  0  0  0  0  0  0  0  0  0  0
   -0.5289    1.8773    0.9072 H   0  0  0  0  0  0  0  0  0  0  0  0
    0.5293   -0.3651    0.8851 H   0  0  0  0  0  0  0  0  0  0  0  0
   -1.0205   -0.3814    0.0098 H   0  0  0  0  0  0  0  0  0  0  0  0
   -1.0900   -0.5323   -2.3641 H   0  0  0  0  0  0  0  0  0  0  0  0
    0.0777   -1.3209   -4.3662 H   0  0  0  0  0  0  0  0  0  0  0  0
    2.2167   -1.9590   -5.3296 H   0  0  0  0  0  0  0  0  0  0  0  0
    4.7608   -2.0578   -1.5976 H   0  0  0  0  0  0  0  0  0  0  0  0
    5.1490   -3.8941   -0.0058 H   0  0  0  0  0  0  0  0  0  0  0  0
    4.8920   -6.7138   -3.2114 H   0  0  0  0  0  0  0  0  0  0  0  0
    4.4941   -4.8707   -4.7930 H   0  0  0  0  0  0  0  0  0  0  0  0
    5.3929   -6.2752    0.3367 H   0  0  0  0  0  0  0  0  0  0  0  0
    5.2916   -7.3829   -0.9225 H   0  0  0  0  0  0  0  0  0  0  0  0
  1  2  1  0  0  0  0
  1 21  1  0  0  0  0
  1 22  1  0  0  0  0
  1 23  1  0  0  0  0
  2  3  1  0  0  0  0
  2 24  1  0  0  0  0
  2 25  1  0  0  0  0
  3  8  1  0  0  0  0
  3  4  1  0  0  0  0
  4  5  2  0  0  0  0
  4 26  1  0  0  0  0
  5  6  1  0  0  0  0
  5 27  1  0  0  0  0
  6  7  2  0  0  0  0
  6 10  1  0  0  0  0
  7  8  1  0  0  0  0
  8  9  2  0  0  0  0
 10 11  1  0  0  0  0
 10 28  1  0  0  0  0
 11 12  2  0  0  0  0
 11 13  2  0  0  0  0
 11 14  1  0  0  0  0
 14 19  2  0  0  0  0
 14 15  1  0  0  0  0
 15 16  2  0  0  0  0
 15 29  1  0  0  0  0
 16 17  1  0  0  0  0
 16 30  1  0  0  0  0
 17 18  2  0  0  0  0
 17 20  1  0  0  0  0
 18 19  1  0  0  0  0
 18 31  1  0  0  0  0
 19 32  1  0  0  0  0
 20 33  1  0  0  0  0
 20 34  1  0  0  0  0
M  END
$$$$
