ZINC00537791
 OpenBabel08292219463D

 67 69  0  0  1  0  0  0  0  0999 V2000
   -0.0187    1.5258    0.0104 C   0  0  0  0  0  0  0  0  0  0  0  0
    0.0021   -0.0041    0.0020 C   0  0  0  0  0  0  0  0  0  0  0  0
    0.7309   -0.5033    1.2229 C   0  0  0  0  0  0  0  0  0  0  0  0
    0.1521   -0.8667    2.3637 C   0  0  0  0  0  0  0  0  0  0  0  0
    1.2561   -1.2950    3.3024 C   0  0  0  0  0  0  0  0  0  0  0  0
    2.5074   -1.1271    2.5519 N   0  0  0  0  0  0  0  0  0  0  0  0
    2.1834   -0.6670    1.3289 C   0  0  0  0  0  0  0  0  0  0  0  0
    2.9792   -0.4202    0.4436 O   0  0  0  0  0  0  0  0  0  0  0  0
    3.7501   -1.3902    3.0025 C   0  0  0  0  0  0  0  0  0  0  0  0
    3.9109   -1.8093    4.1321 O   0  0  0  0  0  0  0  0  0  0  0  0
    4.8144   -1.1886    2.2006 N   0  0  0  0  0  0  0  0  0  0  0  0
    6.1652   -1.4747    2.6904 C   0  0  0  0  0  0  0  0  0  0  0  0
    7.1829   -1.1625    1.5914 C   0  0  0  0  0  0  0  0  0  0  0  0
    8.5724   -1.4567    2.0953 C   0  0  0  0  0  0  0  0  0  0  0  0
    9.2989   -0.4700    2.7351 C   0  0  0  0  0  0  0  0  0  0  0  0
   10.5735   -0.7399    3.1973 C   0  0  0  0  0  0  0  0  0  0  0  0
   11.1213   -1.9966    3.0200 C   0  0  0  0  0  0  0  0  0  0  0  0
   10.3944   -2.9836    2.3809 C   0  0  0  0  0  0  0  0  0  0  0  0
    9.1182   -2.7150    1.9226 C   0  0  0  0  0  0  0  0  0  0  0  0
   12.7463   -2.3403    3.6080 S   0  0  0  0  0  0  0  0  0  0  0  0
   13.2365   -3.4272    2.8351 O   0  0  0  0  0  0  0  0  0  0  0  0
   13.4230   -1.0931    3.6838 O   0  0  0  0  0  0  0  0  0  0  0  0
   12.5979   -2.8935    5.1618 N   0  0  0  0  0  0  0  0  0  0  0  0
   13.6587   -3.2243    5.8386 C   0  0  0  0  0  0  0  0  0  0  0  0
   14.8811   -3.1166    5.2738 O   0  5  0  0  0  0  0  0  0  0  0  0
   13.5356   -3.6831    7.1273 N   0  0  0  0  0  0  0  0  0  0  0  0
   14.7300   -4.0556    7.8894 C   0  0  1  0  0  0  0  0  0  0  0  0
   15.4655   -4.4993    7.2183 H   0  0  0  0  0  0  0  0  0  0  0  0
   15.3256   -2.8086    8.5459 C   0  0  0  0  0  0  0  0  0  0  0  0
   16.5730   -3.1977    9.3418 C   0  0  0  0  0  0  0  0  0  0  0  0
   16.1925   -4.2110   10.4232 C   0  0  1  0  0  0  0  0  0  0  0  0
   15.4571   -3.7673   11.0943 H   0  0  0  0  0  0  0  0  0  0  0  0
   15.5970   -5.4580    9.7666 C   0  0  0  0  0  0  0  0  0  0  0  0
   14.3496   -5.0690    8.9707 C   0  0  0  0  0  0  0  0  0  0  0  0
   17.4400   -4.6001   11.2191 C   0  0  0  0  0  0  0  0  0  0  0  0
   -1.3248   -0.8538    2.6635 C   0  0  0  0  0  0  0  0  0  0  0  0
    1.0039    1.9031    0.0027 H   0  0  0  0  0  0  0  0  0  0  0  0
   -0.5459    1.8868   -0.8726 H   0  0  0  0  0  0  0  0  0  0  0  0
   -0.5289    1.8773    0.9072 H   0  0  0  0  0  0  0  0  0  0  0  0
   -1.0205   -0.3814    0.0098 H   0  0  0  0  0  0  0  0  0  0  0  0
    0.5123   -0.3556   -0.8948 H   0  0  0  0  0  0  0  0  0  0  0  0
    1.2619   -0.6619    4.1897 H   0  0  0  0  0  0  0  0  0  0  0  0
    1.1247   -2.3393    3.5857 H   0  0  0  0  0  0  0  0  0  0  0  0
    4.6861   -0.8542    1.2992 H   0  0  0  0  0  0  0  0  0  0  0  0
    6.3731   -0.8572    3.5642 H   0  0  0  0  0  0  0  0  0  0  0  0
    6.2372   -2.5273    2.9639 H   0  0  0  0  0  0  0  0  0  0  0  0
    6.9749   -1.7800    0.7176 H   0  0  0  0  0  0  0  0  0  0  0  0
    7.1109   -0.1098    1.3179 H   0  0  0  0  0  0  0  0  0  0  0  0
    8.8709    0.5118    2.8737 H   0  0  0  0  0  0  0  0  0  0  0  0
   11.1414    0.0312    3.6966 H   0  0  0  0  0  0  0  0  0  0  0  0
   10.8225   -3.9654    2.2421 H   0  0  0  0  0  0  0  0  0  0  0  0
    8.5488   -3.4871    1.4266 H   0  0  0  0  0  0  0  0  0  0  0  0
   12.6579   -3.7604    7.5328 H   0  0  0  0  0  0  0  0  0  0  0  0
   15.5967   -2.0867    7.7756 H   0  0  0  0  0  0  0  0  0  0  0  0
   14.5902   -2.3649    9.2170 H   0  0  0  0  0  0  0  0  0  0  0  0
   17.3085   -3.6414    8.6707 H   0  0  0  0  0  0  0  0  0  0  0  0
   16.9973   -2.3093    9.8096 H   0  0  0  0  0  0  0  0  0  0  0  0
   16.3324   -5.9017    9.0955 H   0  0  0  0  0  0  0  0  0  0  0  0
   15.3259   -6.1800   10.5370 H   0  0  0  0  0  0  0  0  0  0  0  0
   13.6141   -4.6253    9.6418 H   0  0  0  0  0  0  0  0  0  0  0  0
   13.9253   -5.9574    8.5029 H   0  0  0  0  0  0  0  0  0  0  0  0
   17.8643   -3.7117   11.6868 H   0  0  0  0  0  0  0  0  0  0  0  0
   17.1689   -5.3220   11.9894 H   0  0  0  0  0  0  0  0  0  0  0  0
   18.1754   -5.0438   10.5480 H   0  0  0  0  0  0  0  0  0  0  0  0
   -1.7597   -1.8148    2.3886 H   0  0  0  0  0  0  0  0  0  0  0  0
   -1.4779   -0.6769    3.7280 H   0  0  0  0  0  0  0  0  0  0  0  0
   -1.8049   -0.0606    2.0905 H   0  0  0  0  0  0  0  0  0  0  0  0
  1  2  1  0  0  0  0
  1 37  1  0  0  0  0
  1 38  1  0  0  0  0
  1 39  1  0  0  0  0
  2  3  1  0  0  0  0
  2 40  1  0  0  0  0
  2 41  1  0  0  0  0
  3  7  1  0  0  0  0
  3  4  2  0  0  0  0
  4  5  1  0  0  0  0
  4 36  1  0  0  0  0
  5  6  1  0  0  0  0
  5 42  1  0  0  0  0
  5 43  1  0  0  0  0
  6  7  1  0  0  0  0
  6  9  1  0  0  0  0
  7  8  2  0  0  0  0
  9 10  2  0  0  0  0
  9 11  1  0  0  0  0
 11 12  1  0  0  0  0
 11 44  1  0  0  0  0
 12 13  1  0  0  0  0
 12 45  1  0  0  0  0
 12 46  1  0  0  0  0
 13 14  1  0  0  0  0
 13 47  1  0  0  0  0
 13 48  1  0  0  0  0
 14 19  2  0  0  0  0
 14 15  1  0  0  0  0
 15 16  2  0  0  0  0
 15 49  1  0  0  0  0
 16 17  1  0  0  0  0
 16 50  1  0  0  0  0
 17 18  2  0  0  0  0
 17 20  1  0  0  0  0
 18 19  1  0  0  0  0
 18 51  1  0  0  0  0
 19 52  1  0  0  0  0
 20 21  2  0  0  0  0
 20 22  2  0  0  0  0
 20 23  1  0  0  0  0
 23 24  2  0  0  0  0
 24 25  1  0  0  0  0
 24 26  1  0  0  0  0
 26 27  1  0  0  0  0
 26 53  1  0  0  0  0
 27 28  1  6  0  0  0
 27 34  1  0  0  0  0
 27 29  1  0  0  0  0
 29 30  1  0  0  0  0
 29 54  1  0  0  0  0
 29 55  1  0  0  0  0
 30 31  1  0  0  0  0
 30 56  1  0  0  0  0
 30 57  1  0  0  0  0
 31 32  1  1  0  0  0
 31 33  1  0  0  0  0
 31 35  1  0  0  0  0
 33 34  1  0  0  0  0
 33 58  1  0  0  0  0
 33 59  1  0  0  0  0
 34 60  1  0  0  0  0
 34 61  1  0  0  0  0
 35 62  1  0  0  0  0
 35 63  1  0  0  0  0
 35 64  1  0  0  0  0
 36 65  1  0  0  0  0
 36 66  1  0  0  0  0
 36 67  1  0  0  0  0
M  CHG  1  25  -1
M  END
$$$$
