ZINC01530863
 OpenBabel08292219463D

 41 42  0  0  1  0  0  0  0  0999 V2000
   -0.0187    1.5258    0.0104 C   0  0  0  0  0  0  0  0  0  0  0  0
    0.0021   -0.0041    0.0020 C   0  0  2  0  0  0  0  0  0  0  0  0
    0.5123   -0.3556   -0.8948 H   0  0  0  0  0  0  0  0  0  0  0  0
   -1.4333   -0.5336    0.0129 C   0  0  0  0  0  0  0  0  0  0  0  0
   -1.4157   -2.0577   -0.1212 C   0  0  0  0  0  0  0  0  0  0  0  0
   -2.8510   -2.5872   -0.1103 C   0  0  0  0  0  0  0  0  0  0  0  0
   -2.8341   -4.0505   -0.2391 N   0  3  0  0  0  0  0  0  0  0  0  0
    0.7106   -0.4894    1.1889 N   0  0  0  0  0  0  0  0  0  0  0  0
    2.0999   -0.6036    1.1732 C   0  0  0  0  0  0  0  0  0  0  0  0
    2.8094   -0.2559    0.0460 C   0  0  0  0  0  0  0  0  0  0  0  0
    4.2012   -0.3655    0.0155 C   0  0  0  0  0  0  0  0  0  0  0  0
    4.8946   -0.8237    1.1132 C   0  0  0  0  0  0  0  0  0  0  0  0
    4.1977   -1.1851    2.2765 C   0  0  0  0  0  0  0  0  0  0  0  0
    2.7864   -1.0713    2.3160 C   0  0  0  0  0  0  0  0  0  0  0  0
    2.1226   -1.4101    3.4245 N   0  0  0  0  0  0  0  0  0  0  0  0
    2.7506   -1.8450    4.4898 C   0  0  0  0  0  0  0  0  0  0  0  0
    4.1375   -1.9752    4.5207 C   0  0  0  0  0  0  0  0  0  0  0  0
    4.8761   -1.6579    3.4167 C   0  0  0  0  0  0  0  0  0  0  0  0
    4.8784   -0.0166   -1.1098 O   0  0  0  0  0  0  0  0  0  0  0  0
    6.3007   -0.1511   -1.0790 C   0  0  0  0  0  0  0  0  0  0  0  0
    1.0039    1.9031    0.0027 H   0  0  0  0  0  0  0  0  0  0  0  0
   -0.5459    1.8868   -0.8726 H   0  0  0  0  0  0  0  0  0  0  0  0
   -0.5289    1.8773    0.9072 H   0  0  0  0  0  0  0  0  0  0  0  0
   -1.9156   -0.2570    0.9504 H   0  0  0  0  0  0  0  0  0  0  0  0
   -1.9862   -0.1019   -0.8214 H   0  0  0  0  0  0  0  0  0  0  0  0
   -0.9334   -2.3344   -1.0587 H   0  0  0  0  0  0  0  0  0  0  0  0
   -0.8628   -2.4894    0.7131 H   0  0  0  0  0  0  0  0  0  0  0  0
   -3.3333   -2.3105    0.8272 H   0  0  0  0  0  0  0  0  0  0  0  0
   -3.4039   -2.1555   -0.9446 H   0  0  0  0  0  0  0  0  0  0  0  0
   -2.3877   -4.3066   -1.1069 H   0  0  0  0  0  0  0  0  0  0  0  0
   -2.3223   -4.4502    0.5332 H   0  0  0  0  0  0  0  0  0  0  0  0
    0.2131   -0.7312    1.9857 H   0  0  0  0  0  0  0  0  0  0  0  0
    2.2834    0.1056   -0.8252 H   0  0  0  0  0  0  0  0  0  0  0  0
    5.9709   -0.9050    1.0790 H   0  0  0  0  0  0  0  0  0  0  0  0
    2.1780   -2.1089    5.3666 H   0  0  0  0  0  0  0  0  0  0  0  0
    4.6269   -2.3357    5.4134 H   0  0  0  0  0  0  0  0  0  0  0  0
    5.9518   -1.7533    3.4225 H   0  0  0  0  0  0  0  0  0  0  0  0
    6.7078    0.4760   -0.2859 H   0  0  0  0  0  0  0  0  0  0  0  0
    6.5632   -1.1920   -0.8900 H   0  0  0  0  0  0  0  0  0  0  0  0
    6.7159    0.1600   -2.0375 H   0  0  0  0  0  0  0  0  0  0  0  0
   -3.7807   -4.3997   -0.2319 H   0  0  0  0  0  0  0  0  0  0  0  0
  1  2  1  0  0  0  0
  1 21  1  0  0  0  0
  1 22  1  0  0  0  0
  1 23  1  0  0  0  0
  2  3  1  6  0  0  0
  2  4  1  0  0  0  0
  2  8  1  0  0  0  0
  4  5  1  0  0  0  0
  4 24  1  0  0  0  0
  4 25  1  0  0  0  0
  5  6  1  0  0  0  0
  5 26  1  0  0  0  0
  5 27  1  0  0  0  0
  6  7  1  0  0  0  0
  6 28  1  0  0  0  0
  6 29  1  0  0  0  0
  7 30  1  0  0  0  0
  7 31  1  0  0  0  0
  7 41  1  0  0  0  0
  8  9  1  0  0  0  0
  8 32  1  0  0  0  0
  9 14  2  0  0  0  0
  9 10  1  0  0  0  0
 10 11  2  0  0  0  0
 10 33  1  0  0  0  0
 11 12  1  0  0  0  0
 11 19  1  0  0  0  0
 12 13  2  0  0  0  0
 12 34  1  0  0  0  0
 13 18  1  0  0  0  0
 13 14  1  0  0  0  0
 14 15  1  0  0  0  0
 15 16  2  0  0  0  0
 16 17  1  0  0  0  0
 16 35  1  0  0  0  0
 17 18  2  0  0  0  0
 17 36  1  0  0  0  0
 18 37  1  0  0  0  0
 19 20  1  0  0  0  0
 20 38  1  0  0  0  0
 20 39  1  0  0  0  0
 20 40  1  0  0  0  0
M  CHG  1   7   1
M  END
$$$$
