ZINC03927870
 OpenBabel08292219463D

 35 37  0  0  1  0  0  0  0  0999 V2000
   -0.0164    1.3595    0.0095 C   0  0  0  0  0  0  0  0  0  0  0  0
    1.2004    1.8202    0.0004 N   0  0  0  0  0  0  0  0  0  0  0  0
    2.0746    0.7848   -0.0135 C   0  0  0  0  0  0  0  0  0  0  0  0
    3.4758    0.6755   -0.0279 C   0  0  0  0  0  0  0  0  0  0  0  0
    4.0170   -0.5380   -0.0400 N   0  0  0  0  0  0  0  0  0  0  0  0
    3.2621   -1.6244   -0.0386 C   0  0  0  0  0  0  0  0  0  0  0  0
    1.9447   -1.5690   -0.0253 N   0  0  0  0  0  0  0  0  0  0  0  0
    1.3163   -0.3974   -0.0126 C   0  0  0  0  0  0  0  0  0  0  0  0
    0.0021   -0.0041    0.0020 N   0  0  0  0  0  0  0  0  0  0  0  0
   -1.1670   -0.8869    0.0089 C   0  0  1  0  0  0  0  0  0  0  0  0
   -0.9749   -1.7745   -0.5939 H   0  0  0  0  0  0  0  0  0  0  0  0
   -1.5297   -1.2878    1.4560 C   0  0  2  0  0  0  0  0  0  0  0  0
   -1.1286   -2.2737    1.6911 H   0  0  0  0  0  0  0  0  0  0  0  0
   -3.0745   -1.3163    1.4617 C   0  0  1  0  0  0  0  0  0  0  0  0
   -3.4673   -0.5878    2.1709 H   0  0  0  0  0  0  0  0  0  0  0  0
   -3.4624   -0.9293    0.0174 C   0  0  2  0  0  0  0  0  0  0  0  0
   -3.6242   -1.8235   -0.5846 H   0  0  0  0  0  0  0  0  0  0  0  0
   -2.3293   -0.1859   -0.4847 O   0  0  0  0  0  0  0  0  0  0  0  0
   -4.7182   -0.0552    0.0192 C   0  0  0  0  0  0  0  0  0  0  0  0
   -5.1265    0.1947   -1.3272 O   0  0  0  0  0  0  0  0  0  0  0  0
   -6.4161    1.0827   -1.7019 P   0  0  0  0  0  0  0  0  0  0  0  0
   -7.6775    0.5047   -0.9744 O   0  0  0  0  0  0  0  0  0  0  0  0
   -6.1819    2.5627   -1.2445 O   0  0  0  0  0  1  0  0  0  0  0  0
   -6.6439    1.0449   -3.2515 O   0  0  0  0  0  1  0  0  0  0  0  0
   -3.5499   -2.6266    1.7767 O   0  0  0  0  0  0  0  0  0  0  0  0
   -1.0407   -0.3158    2.3823 O   0  0  0  0  0  0  0  0  0  0  0  0
    3.8626   -2.8345   -0.0517 F   0  0  0  0  0  0  0  0  0  0  0  0
    4.2737    1.8060   -0.0299 N   0  0  0  0  0  0  0  0  0  0  0  0
   -0.9091    1.9671    0.0254 H   0  0  0  0  0  0  0  0  0  0  0  0
   -5.5181   -0.5695    0.5519 H   0  0  0  0  0  0  0  0  0  0  0  0
   -4.5015    0.8911    0.5147 H   0  0  0  0  0  0  0  0  0  0  0  0
   -3.2833   -2.9421    2.6511 H   0  0  0  0  0  0  0  0  0  0  0  0
   -1.2406   -0.5178    3.3066 H   0  0  0  0  0  0  0  0  0  0  0  0
    3.8670    2.6866   -0.0213 H   0  0  0  0  0  0  0  0  0  0  0  0
    5.2396    1.7179   -0.0399 H   0  0  0  0  0  0  0  0  0  0  0  0
  1  9  1  0  0  0  0
  1  2  2  0  0  0  0
  1 29  1  0  0  0  0
  2  3  1  0  0  0  0
  3  8  2  0  0  0  0
  3  4  1  0  0  0  0
  4  5  2  0  0  0  0
  4 28  1  0  0  0  0
  5  6  1  0  0  0  0
  6  7  2  0  0  0  0
  6 27  1  0  0  0  0
  7  8  1  0  0  0  0
  8  9  1  0  0  0  0
  9 10  1  0  0  0  0
 10 11  1  6  0  0  0
 10 18  1  0  0  0  0
 10 12  1  0  0  0  0
 12 13  1  1  0  0  0
 12 14  1  0  0  0  0
 12 26  1  0  0  0  0
 14 15  1  1  0  0  0
 14 16  1  0  0  0  0
 14 25  1  0  0  0  0
 16 17  1  6  0  0  0
 16 18  1  0  0  0  0
 16 19  1  0  0  0  0
 19 20  1  0  0  0  0
 19 30  1  0  0  0  0
 19 31  1  0  0  0  0
 20 21  1  0  0  0  0
 21 22  2  0  0  0  0
 21 23  1  0  0  0  0
 21 24  1  0  0  0  0
 25 32  1  0  0  0  0
 26 33  1  0  0  0  0
 28 34  1  0  0  0  0
 28 35  1  0  0  0  0
M  END
$$$$
