ZINC00057254
 OpenBabel08292219463D

 41 42  0  0  1  0  0  0  0  0999 V2000
    1.6877    1.8892   -0.1300 C   0  0  0  0  0  0  0  0  0  0  0  0
   -0.3126    1.8853   -1.4943 C   0  0  0  0  0  0  0  0  0  0  0  0
    0.2578   -0.0642   -0.1764 C   0  0  0  0  0  0  0  0  0  0  0  0
    0.6795   -0.5159    1.2233 C   0  0  0  0  0  0  0  0  0  0  0  0
    0.6279   -2.0430    1.3034 C   0  0  2  0  0  0  0  0  0  0  0  0
    1.0433   -2.4879    2.6820 C   0  0  0  0  0  0  0  0  0  0  0  0
    0.9918   -3.8271    3.0208 C   0  0  0  0  0  0  0  0  0  0  0  0
    1.3770   -4.2358    4.2839 C   0  0  0  0  0  0  0  0  0  0  0  0
    1.8051   -3.3042    5.2112 C   0  0  0  0  0  0  0  0  0  0  0  0
    1.8516   -1.9644    4.8741 C   0  0  0  0  0  0  0  0  0  0  0  0
    1.4705   -1.5563    3.6096 C   0  0  0  0  0  0  0  0  0  0  0  0
    1.5661   -2.6316    0.2816 C   0  0  0  0  0  0  0  0  0  0  0  0
    1.0679   -3.4070   -0.7487 C   0  0  0  0  0  0  0  0  0  0  0  0
    1.9278   -3.9431   -1.6887 C   0  0  0  0  0  0  0  0  0  0  0  0
    3.2878   -3.7129   -1.5933 C   0  0  0  0  0  0  0  0  0  0  0  0
    3.7876   -2.9422   -0.5608 C   0  0  0  0  0  0  0  0  0  0  0  0
    2.9267   -2.4009    0.3776 C   0  0  0  0  0  0  0  0  0  0  0  0
    3.5537   -1.4323    1.6746 Cl  0  0  0  0  0  0  0  0  0  0  0  0
   -0.7039   -2.4890    1.0401 O   0  0  0  0  0  0  0  0  0  0  0  0
    2.2923    1.4762   -0.9374 H   0  0  0  0  0  0  0  0  0  0  0  0
    1.6956    2.9776   -0.1903 H   0  0  0  0  0  0  0  0  0  0  0  0
    2.0994    1.5755    0.8293 H   0  0  0  0  0  0  0  0  0  0  0  0
   -1.3550    1.5686   -1.5270 H   0  0  0  0  0  0  0  0  0  0  0  0
   -0.2623    2.9736   -1.5257 H   0  0  0  0  0  0  0  0  0  0  0  0
    0.2196    1.4721   -2.3512 H   0  0  0  0  0  0  0  0  0  0  0  0
   -0.7581   -0.4044   -0.3773 H   0  0  0  0  0  0  0  0  0  0  0  0
    0.9364   -0.4900   -0.9155 H   0  0  0  0  0  0  0  0  0  0  0  0
    1.6954   -0.1757    1.4241 H   0  0  0  0  0  0  0  0  0  0  0  0
    0.0009   -0.0901    1.9624 H   0  0  0  0  0  0  0  0  0  0  0  0
    0.6538   -4.5545    2.2976 H   0  0  0  0  0  0  0  0  0  0  0  0
    1.3410   -5.2826    4.5472 H   0  0  0  0  0  0  0  0  0  0  0  0
    2.1035   -3.6232    6.1989 H   0  0  0  0  0  0  0  0  0  0  0  0
    2.1860   -1.2366    5.5986 H   0  0  0  0  0  0  0  0  0  0  0  0
    1.5068   -0.5095    3.3462 H   0  0  0  0  0  0  0  0  0  0  0  0
    0.0061   -3.5909   -0.8213 H   0  0  0  0  0  0  0  0  0  0  0  0
    1.5377   -4.5457   -2.4956 H   0  0  0  0  0  0  0  0  0  0  0  0
    3.9596   -4.1351   -2.3259 H   0  0  0  0  0  0  0  0  0  0  0  0
    4.8500   -2.7627   -0.4861 H   0  0  0  0  0  0  0  0  0  0  0  0
   -1.3627   -2.1483    1.6605 H   0  0  0  0  0  0  0  0  0  0  0  0
    0.2923    1.4125   -0.2313 N   0  3  0  0  0  0  0  0  0  0  0  0
   -0.2466    1.7882    0.5578 H   0  0  0  0  0  0  0  0  0  0  0  0
  1 20  1  0  0  0  0
  1 21  1  0  0  0  0
  1 22  1  0  0  0  0
  1 40  1  0  0  0  0
  2 23  1  0  0  0  0
  2 24  1  0  0  0  0
  2 25  1  0  0  0  0
  2 40  1  0  0  0  0
  3  4  1  0  0  0  0
  3 26  1  0  0  0  0
  3 27  1  0  0  0  0
  3 40  1  0  0  0  0
  4  5  1  0  0  0  0
  4 28  1  0  0  0  0
  4 29  1  0  0  0  0
  5  6  1  0  0  0  0
  5 12  1  0  0  0  0
  5 19  1  6  0  0  0
  6 11  2  0  0  0  0
  6  7  1  0  0  0  0
  7  8  2  0  0  0  0
  7 30  1  0  0  0  0
  8  9  1  0  0  0  0
  8 31  1  0  0  0  0
  9 10  2  0  0  0  0
  9 32  1  0  0  0  0
 10 11  1  0  0  0  0
 10 33  1  0  0  0  0
 11 34  1  0  0  0  0
 12 17  2  0  0  0  0
 12 13  1  0  0  0  0
 13 14  2  0  0  0  0
 13 35  1  0  0  0  0
 14 15  1  0  0  0  0
 14 36  1  0  0  0  0
 15 16  2  0  0  0  0
 15 37  1  0  0  0  0
 16 17  1  0  0  0  0
 16 38  1  0  0  0  0
 17 18  1  0  0  0  0
 19 39  1  0  0  0  0
 40 41  1  0  0  0  0
M  CHG  1  40   1
M  END
$$$$
