ZINC01530968
 OpenBabel08292219463D

 27 28  0  0  0  0  0  0  0  0999 V2000
   -0.4347    0.4914   -0.1761 C   0  0  0  0  0  0  0  0  0  0  0  0
    0.6198    1.2493    0.2987 C   0  0  0  0  0  0  0  0  0  0  0  0
    1.9069    0.7298    0.2881 C   0  0  0  0  0  0  0  0  0  0  0  0
    2.1327   -0.5490   -0.1989 C   0  0  0  0  0  0  0  0  0  0  0  0
    1.0758   -1.3039   -0.6728 C   0  0  0  0  0  0  0  0  0  0  0  0
   -0.2076   -0.7838   -0.6614 C   0  0  0  0  0  0  0  0  0  0  0  0
   -1.5333   -1.7337   -1.2565 Cl  0  0  0  0  0  0  0  0  0  0  0  0
    1.3579   -2.9044   -1.2830 Cl  0  0  0  0  0  0  0  0  0  0  0  0
    3.5293   -1.1151   -0.2119 C   0  0  0  0  0  0  0  0  0  0  0  0
    3.8552   -1.6795    1.1468 C   0  0  0  0  0  0  0  0  0  0  0  0
    3.4012   -2.9411    1.5013 C   0  0  0  0  0  0  0  0  0  0  0  0
    3.7030   -3.4591    2.7532 C   0  0  0  0  0  0  0  0  0  0  0  0
    4.4556   -2.7169    3.6445 C   0  0  0  0  0  0  0  0  0  0  0  0
    4.9076   -1.4587    3.2893 C   0  0  0  0  0  0  0  0  0  0  0  0
    4.6119   -0.9424    2.0387 C   0  0  0  0  0  0  0  0  0  0  0  0
    5.1861    0.6342    1.5932 Cl  0  0  0  0  0  0  0  0  0  0  0  0
    5.8524   -0.5286    4.4100 Cl  0  0  0  0  0  0  0  0  0  0  0  0
    3.1355   -5.0378    3.1998 Cl  0  0  0  0  0  0  0  0  0  0  0  0
    2.6610   -3.6694    0.6238 O   0  0  0  0  0  0  0  0  0  0  0  0
    2.9449    1.4737    0.7541 O   0  0  0  0  0  0  0  0  0  0  0  0
    0.3342    2.8499    0.9071 Cl  0  0  0  0  0  0  0  0  0  0  0  0
   -1.4369    0.8937   -0.1638 H   0  0  0  0  0  0  0  0  0  0  0  0
    3.5937   -1.9062   -0.9590 H   0  0  0  0  0  0  0  0  0  0  0  0
    4.2392   -0.3252   -0.4571 H   0  0  0  0  0  0  0  0  0  0  0  0
    4.6903   -3.1195    4.6187 H   0  0  0  0  0  0  0  0  0  0  0  0
    3.1878   -4.1933    0.0050 H   0  0  0  0  0  0  0  0  0  0  0  0
    3.0445    1.4512    1.7157 H   0  0  0  0  0  0  0  0  0  0  0  0
  1  6  2  0  0  0  0
  1  2  1  0  0  0  0
  1 22  1  0  0  0  0
  2  3  2  0  0  0  0
  2 21  1  0  0  0  0
  3  4  1  0  0  0  0
  3 20  1  0  0  0  0
  4  5  2  0  0  0  0
  4  9  1  0  0  0  0
  5  6  1  0  0  0  0
  5  8  1  0  0  0  0
  6  7  1  0  0  0  0
  9 10  1  0  0  0  0
  9 23  1  0  0  0  0
  9 24  1  0  0  0  0
 10 15  2  0  0  0  0
 10 11  1  0  0  0  0
 11 12  2  0  0  0  0
 11 19  1  0  0  0  0
 12 13  1  0  0  0  0
 12 18  1  0  0  0  0
 13 14  2  0  0  0  0
 13 25  1  0  0  0  0
 14 15  1  0  0  0  0
 14 17  1  0  0  0  0
 15 16  1  0  0  0  0
 19 26  1  0  0  0  0
 20 27  1  0  0  0  0
M  END
$$$$
