ZINC12503084
 OpenBabel08292219463D

 38 38  0  0  1  0  0  0  0  0999 V2000
    3.7908   -2.6805    1.8452 C   0  0  0  0  0  0  0  0  0  0  0  0
    2.5390   -2.0990    1.1853 C   0  0  0  0  0  0  0  0  0  0  0  0
    1.2925   -2.6642    1.8693 C   0  0  1  0  0  0  0  0  0  0  0  0
    1.3289   -3.7534    1.8482 H   0  0  0  0  0  0  0  0  0  0  0  0
    1.2452   -2.1835    3.3210 C   0  0  0  0  0  0  0  0  0  0  0  0
    0.0424   -2.1813    1.1311 C   0  0  0  0  0  0  0  0  0  0  0  0
    0.0379   -2.8087   -0.2501 C   0  0  0  0  0  0  0  0  0  0  0  0
    0.0533   -4.0124   -0.3938 O   0  0  0  0  0  0  0  0  0  0  0  0
    0.0165   -1.9770   -1.3131 N   0  0  0  0  0  0  0  0  0  0  0  0
   -0.0058   -0.6467   -1.1714 C   0  0  0  0  0  0  0  0  0  0  0  0
   -0.0292    0.0269   -2.1822 O   0  0  0  0  0  0  0  0  0  0  0  0
    0.0021   -0.0041    0.0020 N   0  0  0  0  0  0  0  0  0  0  0  0
    0.0222   -0.6651    1.1788 C   0  0  0  0  0  0  0  0  0  0  0  0
    0.0237   -0.0693    2.2346 O   0  0  0  0  0  0  0  0  0  0  0  0
   -0.0178    1.4608    0.0101 C   0  0  0  0  0  0  0  0  0  0  0  0
    0.0110   -2.5481   -2.6622 C   0  0  0  0  0  0  0  0  0  0  0  0
   -1.1828   -2.6977    1.8881 C   0  0  0  0  0  0  0  0  0  0  0  0
   -2.4352   -2.1747    1.2333 C   0  0  0  0  0  0  0  0  0  0  0  0
   -3.3657   -3.0085    0.8396 C   0  0  0  0  0  0  0  0  0  0  0  0
    3.7828   -3.7660    1.7464 H   0  0  0  0  0  0  0  0  0  0  0  0
    4.6788   -2.2779    1.3579 H   0  0  0  0  0  0  0  0  0  0  0  0
    3.8028   -2.4120    2.9016 H   0  0  0  0  0  0  0  0  0  0  0  0
    2.5270   -2.3676    0.1289 H   0  0  0  0  0  0  0  0  0  0  0  0
    2.5470   -1.0135    1.2841 H   0  0  0  0  0  0  0  0  0  0  0  0
    1.2089   -1.0943    3.3421 H   0  0  0  0  0  0  0  0  0  0  0  0
    0.3572   -2.5861    3.8083 H   0  0  0  0  0  0  0  0  0  0  0  0
    2.1358   -2.5275    3.8469 H   0  0  0  0  0  0  0  0  0  0  0  0
    1.0048    1.8381    0.0023 H   0  0  0  0  0  0  0  0  0  0  0  0
   -0.5450    1.8219   -0.8730 H   0  0  0  0  0  0  0  0  0  0  0  0
   -0.5280    1.8123    0.9069 H   0  0  0  0  0  0  0  0  0  0  0  0
   -1.0179   -2.7034   -2.9868 H   0  0  0  0  0  0  0  0  0  0  0  0
    0.5091   -1.8634   -3.3486 H   0  0  0  0  0  0  0  0  0  0  0  0
    0.5376   -3.5023   -2.6549 H   0  0  0  0  0  0  0  0  0  0  0  0
   -1.1899   -3.7875    1.8674 H   0  0  0  0  0  0  0  0  0  0  0  0
   -1.1426   -2.3543    2.9218 H   0  0  0  0  0  0  0  0  0  0  0  0
   -2.5656   -1.1124    1.0885 H   0  0  0  0  0  0  0  0  0  0  0  0
   -4.2633   -2.6336    0.3703 H   0  0  0  0  0  0  0  0  0  0  0  0
   -3.2353   -4.0708    0.9844 H   0  0  0  0  0  0  0  0  0  0  0  0
  1  2  1  0  0  0  0
  1 20  1  0  0  0  0
  1 21  1  0  0  0  0
  1 22  1  0  0  0  0
  2  3  1  0  0  0  0
  2 23  1  0  0  0  0
  2 24  1  0  0  0  0
  3  4  1  6  0  0  0
  3  5  1  0  0  0  0
  3  6  1  0  0  0  0
  5 25  1  0  0  0  0
  5 26  1  0  0  0  0
  5 27  1  0  0  0  0
  6 13  1  0  0  0  0
  6  7  1  0  0  0  0
  6 17  1  0  0  0  0
  7  8  2  0  0  0  0
  7  9  1  0  0  0  0
  9 10  1  0  0  0  0
  9 16  1  0  0  0  0
 10 11  2  0  0  0  0
 10 12  1  0  0  0  0
 12 13  1  0  0  0  0
 12 15  1  0  0  0  0
 13 14  2  0  0  0  0
 15 28  1  0  0  0  0
 15 29  1  0  0  0  0
 15 30  1  0  0  0  0
 16 31  1  0  0  0  0
 16 32  1  0  0  0  0
 16 33  1  0  0  0  0
 17 18  1  0  0  0  0
 17 34  1  0  0  0  0
 17 35  1  0  0  0  0
 18 19  2  0  0  0  0
 18 36  1  0  0  0  0
 19 37  1  0  0  0  0
 19 38  1  0  0  0  0
M  END
$$$$
