ZINC00057198
 OpenBabel08292219463D

 46 48  0  0  0  0  0  0  0  0999 V2000
    0.1526    1.4065   -0.4884 C   0  0  0  0  0  0  0  0  0  0  0  0
    0.1271   -0.0970   -0.3892 C   0  0  0  0  0  0  0  0  0  0  0  0
    1.1663   -0.7233   -0.3979 O   0  0  0  0  0  0  0  0  0  0  0  0
   -1.1537   -0.8032   -0.2819 C   0  0  0  0  0  0  0  0  0  0  0  0
   -2.3545   -0.0822   -0.2775 C   0  0  0  0  0  0  0  0  0  0  0  0
   -3.5526   -0.7508   -0.1796 C   0  0  0  0  0  0  0  0  0  0  0  0
   -3.5785   -2.1401   -0.0827 C   0  0  0  0  0  0  0  0  0  0  0  0
   -2.3871   -2.8695   -0.0819 C   0  0  0  0  0  0  0  0  0  0  0  0
   -1.1793   -2.2009   -0.1896 C   0  0  0  0  0  0  0  0  0  0  0  0
   -2.3765   -4.2583    0.0263 N   0  0  0  0  0  0  0  0  0  0  0  0
   -3.4306   -5.0917   -0.3372 C   0  0  0  0  0  0  0  0  0  0  0  0
   -3.1550   -6.4125   -0.6767 C   0  0  0  0  0  0  0  0  0  0  0  0
   -4.1780   -7.2681   -1.0376 C   0  0  0  0  0  0  0  0  0  0  0  0
   -5.4847   -6.8183   -1.0633 C   0  0  0  0  0  0  0  0  0  0  0  0
   -5.7701   -5.5073   -0.7298 C   0  0  0  0  0  0  0  0  0  0  0  0
   -4.7471   -4.6411   -0.3704 C   0  0  0  0  0  0  0  0  0  0  0  0
   -5.1280   -2.9704    0.0356 S   0  0  0  0  0  0  0  0  0  0  0  0
   -1.1674   -4.8881    0.5625 C   0  0  0  0  0  0  0  0  0  0  0  0
   -0.2073   -5.2082   -0.5851 C   0  0  0  0  0  0  0  0  0  0  0  0
    1.0555   -5.8659   -0.0251 C   0  0  0  0  0  0  0  0  0  0  0  0
    1.9773   -6.1732   -1.1268 N   0  3  0  0  0  0  0  0  0  0  0  0
    3.2374   -6.6940   -0.5802 C   0  0  0  0  0  0  0  0  0  0  0  0
    1.3708   -7.1820   -2.0057 C   0  0  0  0  0  0  0  0  0  0  0  0
    1.1851    1.7484   -0.5600 H   0  0  0  0  0  0  0  0  0  0  0  0
   -0.3968    1.7214   -1.3756 H   0  0  0  0  0  0  0  0  0  0  0  0
   -0.3120    1.8371    0.3986 H   0  0  0  0  0  0  0  0  0  0  0  0
   -2.3398    0.9953   -0.3503 H   0  0  0  0  0  0  0  0  0  0  0  0
   -4.4787   -0.1953   -0.1775 H   0  0  0  0  0  0  0  0  0  0  0  0
   -0.2542   -2.7582   -0.1982 H   0  0  0  0  0  0  0  0  0  0  0  0
   -2.1362   -6.7706   -0.6585 H   0  0  0  0  0  0  0  0  0  0  0  0
   -3.9559   -8.2917   -1.3008 H   0  0  0  0  0  0  0  0  0  0  0  0
   -6.2822   -7.4904   -1.3440 H   0  0  0  0  0  0  0  0  0  0  0  0
   -6.7913   -5.1564   -0.7497 H   0  0  0  0  0  0  0  0  0  0  0  0
   -0.6829   -4.2072    1.2623 H   0  0  0  0  0  0  0  0  0  0  0  0
   -1.4361   -5.8095    1.0791 H   0  0  0  0  0  0  0  0  0  0  0  0
   -0.6918   -5.8891   -1.2849 H   0  0  0  0  0  0  0  0  0  0  0  0
    0.0614   -4.2868   -1.1017 H   0  0  0  0  0  0  0  0  0  0  0  0
    1.5400   -5.1850    0.6748 H   0  0  0  0  0  0  0  0  0  0  0  0
    0.7868   -6.7873    0.4916 H   0  0  0  0  0  0  0  0  0  0  0  0
    3.0385   -7.6009   -0.0092 H   0  0  0  0  0  0  0  0  0  0  0  0
    3.9213   -6.9220   -1.3977 H   0  0  0  0  0  0  0  0  0  0  0  0
    3.6874   -5.9454    0.0719 H   0  0  0  0  0  0  0  0  0  0  0  0
    0.4357   -6.7956   -2.4113 H   0  0  0  0  0  0  0  0  0  0  0  0
    2.0547   -7.4100   -2.8232 H   0  0  0  0  0  0  0  0  0  0  0  0
    1.1718   -8.0889   -1.4347 H   0  0  0  0  0  0  0  0  0  0  0  0
    2.1614   -5.3337   -1.6554 H   0  0  0  0  0  0  0  0  0  0  0  0
  1  2  1  0  0  0  0
  1 24  1  0  0  0  0
  1 25  1  0  0  0  0
  1 26  1  0  0  0  0
  2  3  2  0  0  0  0
  2  4  1  0  0  0  0
  4  9  2  0  0  0  0
  4  5  1  0  0  0  0
  5  6  2  0  0  0  0
  5 27  1  0  0  0  0
  6  7  1  0  0  0  0
  6 28  1  0  0  0  0
  7 17  1  0  0  0  0
  7  8  2  0  0  0  0
  8  9  1  0  0  0  0
  8 10  1  0  0  0  0
  9 29  1  0  0  0  0
 10 11  1  0  0  0  0
 10 18  1  0  0  0  0
 11 16  2  0  0  0  0
 11 12  1  0  0  0  0
 12 13  2  0  0  0  0
 12 30  1  0  0  0  0
 13 14  1  0  0  0  0
 13 31  1  0  0  0  0
 14 15  2  0  0  0  0
 14 32  1  0  0  0  0
 15 16  1  0  0  0  0
 15 33  1  0  0  0  0
 16 17  1  0  0  0  0
 18 19  1  0  0  0  0
 18 34  1  0  0  0  0
 18 35  1  0  0  0  0
 19 20  1  0  0  0  0
 19 36  1  0  0  0  0
 19 37  1  0  0  0  0
 20 21  1  0  0  0  0
 20 38  1  0  0  0  0
 20 39  1  0  0  0  0
 21 22  1  0  0  0  0
 21 23  1  0  0  0  0
 21 46  1  0  0  0  0
 22 40  1  0  0  0  0
 22 41  1  0  0  0  0
 22 42  1  0  0  0  0
 23 43  1  0  0  0  0
 23 44  1  0  0  0  0
 23 45  1  0  0  0  0
M  CHG  1  21   1
M  END
$$$$
