ZINC00643143
 OpenBabel08292219463D

 64 68  0  0  1  0  0  0  0  0999 V2000
    3.7515    7.2875   -1.6315 C   0  0  0  0  0  0  0  0  0  0  0  0
    4.5958    6.3975   -0.7564 C   0  0  0  0  0  0  0  0  0  0  0  0
    5.7561    6.6799   -0.5443 O   0  0  0  0  0  0  0  0  0  0  0  0
    4.0616    5.2876   -0.2093 N   0  0  0  0  0  0  0  0  0  0  0  0
    4.8345    4.4627    0.7316 C   0  0  0  0  0  0  0  0  0  0  0  0
    4.7776    3.0053    0.2615 C   0  0  0  0  0  0  0  0  0  0  0  0
    3.3750    2.6036    0.0905 N   0  0  0  0  0  0  0  0  0  0  0  0
    2.7177    3.3961   -0.9572 C   0  0  0  0  0  0  0  0  0  0  0  0
    2.6901    4.8695   -0.5370 C   0  0  0  0  0  0  0  0  0  0  0  0
    3.2748    1.2342   -0.1793 C   0  0  0  0  0  0  0  0  0  0  0  0
    2.0284    0.6539   -0.3741 C   0  0  0  0  0  0  0  0  0  0  0  0
    1.9305   -0.6977   -0.6408 C   0  0  0  0  0  0  0  0  0  0  0  0
    3.0766   -1.4754   -0.7137 C   0  0  0  0  0  0  0  0  0  0  0  0
    4.3220   -0.8965   -0.5197 C   0  0  0  0  0  0  0  0  0  0  0  0
    4.4218    0.4549   -0.2529 C   0  0  0  0  0  0  0  0  0  0  0  0
    2.9792   -2.8064   -0.9759 O   0  0  0  0  0  0  0  0  0  0  0  0
    4.2000   -3.5467   -1.0366 C   0  0  0  0  0  0  0  0  0  0  0  0
    3.8919   -5.0144   -1.3392 C   0  0  2  0  0  0  0  0  0  0  0  0
    3.1378   -5.4021   -0.6542 H   0  0  0  0  0  0  0  0  0  0  0  0
    5.1802   -5.8733   -1.2895 C   0  0  0  0  0  0  0  0  0  0  0  0
    4.8724   -6.9744   -2.1680 O   0  0  0  0  0  0  0  0  0  0  0  0
    3.8164   -6.5440   -3.0369 C   0  0  2  0  0  0  0  0  0  0  0  0
    3.4784   -5.1840   -2.7164 O   0  0  0  0  0  0  0  0  0  0  0  0
    2.5910   -7.4385   -2.8390 C   0  0  0  0  0  0  0  0  0  0  0  0
    2.0982   -7.2952   -1.4669 N   0  0  0  0  0  0  0  0  0  0  0  0
    1.1702   -6.3899   -1.0275 C   0  0  0  0  0  0  0  0  0  0  0  0
    1.0116   -6.6040    0.2925 C   0  0  0  0  0  0  0  0  0  0  0  0
    1.8206   -7.6125    0.6495 N   0  0  0  0  0  0  0  0  0  0  0  0
    2.4703   -8.0353   -0.4004 C   0  0  0  0  0  0  0  0  0  0  0  0
    4.2755   -6.6241   -4.4700 C   0  0  0  0  0  0  0  0  0  0  0  0
    4.1761   -5.5159   -5.2905 C   0  0  0  0  0  0  0  0  0  0  0  0
    4.5973   -5.5885   -6.6047 C   0  0  0  0  0  0  0  0  0  0  0  0
    5.1190   -6.7706   -7.1001 C   0  0  0  0  0  0  0  0  0  0  0  0
    5.2187   -7.8796   -6.2797 C   0  0  0  0  0  0  0  0  0  0  0  0
    4.8017   -7.8048   -4.9626 C   0  0  0  0  0  0  0  0  0  0  0  0
    4.9326   -9.1943   -3.9302 Cl  0  0  0  0  0  0  0  0  0  0  0  0
    5.6476   -6.8617   -8.7512 Cl  0  0  0  0  0  0  0  0  0  0  0  0
    2.7203    6.9345   -1.6214 H   0  0  0  0  0  0  0  0  0  0  0  0
    3.7894    8.3095   -1.2544 H   0  0  0  0  0  0  0  0  0  0  0  0
    4.1341    7.2624   -2.6519 H   0  0  0  0  0  0  0  0  0  0  0  0
    4.4024    4.5427    1.7291 H   0  0  0  0  0  0  0  0  0  0  0  0
    5.8704    4.8013    0.7500 H   0  0  0  0  0  0  0  0  0  0  0  0
    5.2515    2.3645    1.0051 H   0  0  0  0  0  0  0  0  0  0  0  0
    5.3020    2.9091   -0.6893 H   0  0  0  0  0  0  0  0  0  0  0  0
    3.2707    3.2945   -1.8910 H   0  0  0  0  0  0  0  0  0  0  0  0
    1.6975    3.0387   -1.0975 H   0  0  0  0  0  0  0  0  0  0  0  0
    2.0519    4.9887    0.3385 H   0  0  0  0  0  0  0  0  0  0  0  0
    2.3070    5.4795   -1.3551 H   0  0  0  0  0  0  0  0  0  0  0  0
    1.1361    1.2601   -0.3215 H   0  0  0  0  0  0  0  0  0  0  0  0
    0.9612   -1.1492   -0.7924 H   0  0  0  0  0  0  0  0  0  0  0  0
    5.2139   -1.5028   -0.5769 H   0  0  0  0  0  0  0  0  0  0  0  0
    5.3916    0.9054   -0.1015 H   0  0  0  0  0  0  0  0  0  0  0  0
    4.8336   -3.1386   -1.8241 H   0  0  0  0  0  0  0  0  0  0  0  0
    4.7171   -3.4737   -0.0798 H   0  0  0  0  0  0  0  0  0  0  0  0
    6.0341   -5.3088   -1.6641 H   0  0  0  0  0  0  0  0  0  0  0  0
    5.3686   -6.2268   -0.2758 H   0  0  0  0  0  0  0  0  0  0  0  0
    1.8090   -7.1434   -3.5386 H   0  0  0  0  0  0  0  0  0  0  0  0
    2.8667   -8.4775   -3.0194 H   0  0  0  0  0  0  0  0  0  0  0  0
    0.6624   -5.6471   -1.6249 H   0  0  0  0  0  0  0  0  0  0  0  0
    0.3491   -6.0592    0.9487 H   0  0  0  0  0  0  0  0  0  0  0  0
    3.1885   -8.8418   -0.4136 H   0  0  0  0  0  0  0  0  0  0  0  0
    3.7693   -4.5930   -4.9042 H   0  0  0  0  0  0  0  0  0  0  0  0
    4.5197   -4.7223   -7.2452 H   0  0  0  0  0  0  0  0  0  0  0  0
    5.6255   -8.8025   -6.6660 H   0  0  0  0  0  0  0  0  0  0  0  0
  1  2  1  0  0  0  0
  1 38  1  0  0  0  0
  1 39  1  0  0  0  0
  1 40  1  0  0  0  0
  2  3  2  0  0  0  0
  2  4  1  0  0  0  0
  4  9  1  0  0  0  0
  4  5  1  0  0  0  0
  5  6  1  0  0  0  0
  5 41  1  0  0  0  0
  5 42  1  0  0  0  0
  6  7  1  0  0  0  0
  6 43  1  0  0  0  0
  6 44  1  0  0  0  0
  7  8  1  0  0  0  0
  7 10  1  0  0  0  0
  8  9  1  0  0  0  0
  8 45  1  0  0  0  0
  8 46  1  0  0  0  0
  9 47  1  0  0  0  0
  9 48  1  0  0  0  0
 10 15  2  0  0  0  0
 10 11  1  0  0  0  0
 11 12  2  0  0  0  0
 11 49  1  0  0  0  0
 12 13  1  0  0  0  0
 12 50  1  0  0  0  0
 13 14  2  0  0  0  0
 13 16  1  0  0  0  0
 14 15  1  0  0  0  0
 14 51  1  0  0  0  0
 15 52  1  0  0  0  0
 16 17  1  0  0  0  0
 17 18  1  0  0  0  0
 17 53  1  0  0  0  0
 17 54  1  0  0  0  0
 18 19  1  1  0  0  0
 18 23  1  0  0  0  0
 18 20  1  0  0  0  0
 20 21  1  0  0  0  0
 20 55  1  0  0  0  0
 20 56  1  0  0  0  0
 21 22  1  0  0  0  0
 22 23  1  0  0  0  0
 22 24  1  1  0  0  0
 22 30  1  0  0  0  0
 24 25  1  0  0  0  0
 24 57  1  0  0  0  0
 24 58  1  0  0  0  0
 25 29  1  0  0  0  0
 25 26  1  0  0  0  0
 26 27  2  0  0  0  0
 26 59  1  0  0  0  0
 27 28  1  0  0  0  0
 27 60  1  0  0  0  0
 28 29  2  0  0  0  0
 29 61  1  0  0  0  0
 30 35  2  0  0  0  0
 30 31  1  0  0  0  0
 31 32  2  0  0  0  0
 31 62  1  0  0  0  0
 32 33  1  0  0  0  0
 32 63  1  0  0  0  0
 33 34  2  0  0  0  0
 33 37  1  0  0  0  0
 34 35  1  0  0  0  0
 34 64  1  0  0  0  0
 35 36  1  0  0  0  0
M  END
$$$$
