ZINC01530788
 OpenBabel08292219463D

 48 51  0  0  1  0  0  0  0  0999 V2000
   -0.0167    1.3808    0.0096 C   0  0  0  0  0  0  0  0  0  0  0  0
    1.1572    2.1060    0.0023 C   0  0  0  0  0  0  0  0  0  0  0  0
    2.3823    1.4503   -0.0111 C   0  0  0  0  0  0  0  0  0  0  0  0
    2.4047    0.0432   -0.0094 C   0  0  0  0  0  0  0  0  0  0  0  0
    1.2089   -0.6834   -0.0090 C   0  0  0  0  0  0  0  0  0  0  0  0
    0.0021   -0.0041    0.0020 C   0  0  0  0  0  0  0  0  0  0  0  0
    1.2315   -2.0400   -0.0196 O   0  0  0  0  0  0  0  0  0  0  0  0
   -0.0308   -2.7098   -0.0184 C   0  0  0  0  0  0  0  0  0  0  0  0
    0.1949   -4.2230   -0.0313 C   0  0  1  0  0  0  0  0  0  0  0  0
   -1.1505   -4.9404    0.0957 C   0  0  0  0  0  0  0  0  0  0  0  0
   -0.9315   -6.3486    0.2008 O   0  0  0  0  0  0  0  0  0  0  0  0
   -2.0301   -7.1356    0.3211 C   0  0  0  0  0  0  0  0  0  0  0  0
   -3.2956   -6.5730    0.3328 C   0  0  0  0  0  0  0  0  0  0  0  0
   -4.4144   -7.3796    0.4590 C   0  0  0  0  0  0  0  0  0  0  0  0
   -4.2917   -8.7487    0.5790 C   0  0  0  0  0  0  0  0  0  0  0  0
   -3.0341   -9.3398    0.5722 C   0  0  0  0  0  0  0  0  0  0  0  0
   -1.8961   -8.5243    0.4288 C   0  0  0  0  0  0  0  0  0  0  0  0
   -0.5751   -9.1762    0.3966 C   0  0  0  0  0  0  0  0  0  0  0  0
    0.4601   -8.5427    0.5028 O   0  0  0  0  0  0  0  0  0  0  0  0
   -0.5810  -10.6429    0.2285 C   0  0  0  0  0  0  0  0  0  0  0  0
   -1.7561  -11.2998    0.3782 C   0  0  0  0  0  0  0  0  0  0  0  0
   -2.9017  -10.6741    0.6973 O   0  0  0  0  0  0  0  0  0  0  0  0
   -1.7758  -12.7689    0.1952 C   0  0  0  0  0  0  0  0  0  0  0  0
   -0.7455  -13.3637   -0.0850 O   0  0  0  0  0  0  0  0  0  0  0  0
   -2.8224  -13.3869    0.3243 O   0  0  0  0  0  1  0  0  0  0  0  0
    0.8220   -4.6007   -1.2585 O   0  0  0  0  0  0  0  0  0  0  0  0
    3.7156   -0.6295   -0.0012 C   0  0  0  0  0  0  0  0  0  0  0  0
    3.8304   -1.8224   -0.2206 O   0  0  0  0  0  0  0  0  0  0  0  0
    4.8816    0.2285    0.2882 C   0  0  0  0  0  0  0  0  0  0  0  0
    4.7100    1.5719    0.2626 C   0  0  0  0  0  0  0  0  0  0  0  0
    3.5343    2.1475   -0.0275 O   0  0  0  0  0  0  0  0  0  0  0  0
    5.8691    2.4410    0.5682 C   0  0  0  0  0  0  0  0  0  0  0  0
    6.9526    1.9429    0.8365 O   0  0  0  0  0  0  0  0  0  0  0  0
    5.7425    3.6566    0.5523 O   0  0  0  0  0  1  0  0  0  0  0  0
   -0.9634    1.9004    0.0260 H   0  0  0  0  0  0  0  0  0  0  0  0
    1.1238    3.1854    0.0066 H   0  0  0  0  0  0  0  0  0  0  0  0
   -0.9265   -0.5555    0.0050 H   0  0  0  0  0  0  0  0  0  0  0  0
   -0.5881   -2.4332    0.8766 H   0  0  0  0  0  0  0  0  0  0  0  0
   -0.5971   -2.4194   -0.9033 H   0  0  0  0  0  0  0  0  0  0  0  0
    0.8357   -4.5020    0.8051 H   0  0  0  0  0  0  0  0  0  0  0  0
   -1.6687   -4.5859    0.9867 H   0  0  0  0  0  0  0  0  0  0  0  0
   -1.7580   -4.7320   -0.7850 H   0  0  0  0  0  0  0  0  0  0  0  0
   -3.4102   -5.5028    0.2436 H   0  0  0  0  0  0  0  0  0  0  0  0
   -5.3967   -6.9306    0.4639 H   0  0  0  0  0  0  0  0  0  0  0  0
   -5.1749   -9.3622    0.6789 H   0  0  0  0  0  0  0  0  0  0  0  0
    0.3271  -11.1776   -0.0078 H   0  0  0  0  0  0  0  0  0  0  0  0
    0.3067   -4.3823   -2.0471 H   0  0  0  0  0  0  0  0  0  0  0  0
    5.8453   -0.2033    0.5146 H   0  0  0  0  0  0  0  0  0  0  0  0
  1  6  2  0  0  0  0
  1  2  1  0  0  0  0
  1 35  1  0  0  0  0
  2  3  2  0  0  0  0
  2 36  1  0  0  0  0
  3 31  1  0  0  0  0
  3  4  1  0  0  0  0
  4  5  2  0  0  0  0
  4 27  1  0  0  0  0
  5  6  1  0  0  0  0
  5  7  1  0  0  0  0
  6 37  1  0  0  0  0
  7  8  1  0  0  0  0
  8  9  1  0  0  0  0
  8 38  1  0  0  0  0
  8 39  1  0  0  0  0
  9 10  1  0  0  0  0
  9 26  1  0  0  0  0
  9 40  1  1  0  0  0
 10 11  1  0  0  0  0
 10 41  1  0  0  0  0
 10 42  1  0  0  0  0
 11 12  1  0  0  0  0
 12 17  2  0  0  0  0
 12 13  1  0  0  0  0
 13 14  2  0  0  0  0
 13 43  1  0  0  0  0
 14 15  1  0  0  0  0
 14 44  1  0  0  0  0
 15 16  2  0  0  0  0
 15 45  1  0  0  0  0
 16 22  1  0  0  0  0
 16 17  1  0  0  0  0
 17 18  1  0  0  0  0
 18 19  2  0  0  0  0
 18 20  1  0  0  0  0
 20 21  2  0  0  0  0
 20 46  1  0  0  0  0
 21 22  1  0  0  0  0
 21 23  1  0  0  0  0
 23 24  2  0  0  0  0
 23 25  1  0  0  0  0
 26 47  1  0  0  0  0
 27 28  2  0  0  0  0
 27 29  1  0  0  0  0
 29 30  2  0  0  0  0
 29 48  1  0  0  0  0
 30 31  1  0  0  0  0
 30 32  1  0  0  0  0
 32 33  2  0  0  0  0
 32 34  1  0  0  0  0
M  END
$$$$
