ZINC03651680
 OpenBabel08292219463D

 31 31  0  0  1  0  0  0  0  0999 V2000
   -0.0187    1.5258    0.0104 C   0  0  0  0  0  0  0  0  0  0  0  0
    0.0021   -0.0041    0.0020 C   0  0  0  0  0  0  0  0  0  0  0  0
   -1.4333   -0.5336    0.0129 C   0  0  1  0  0  0  0  0  0  0  0  0
   -1.9701   -0.1109    0.8621 H   0  0  0  0  0  0  0  0  0  0  0  0
   -2.1352   -0.1312   -1.2857 C   0  0  0  0  0  0  0  0  0  0  0  0
   -1.4133   -2.0590    0.1302 C   0  0  0  0  0  0  0  0  0  0  0  0
   -0.8625   -2.4201    1.4968 C   0  0  0  0  0  0  0  0  0  0  0  0
   -1.3927   -2.0248    2.5128 O   0  0  0  0  0  0  0  0  0  0  0  0
    0.2402   -3.1977    1.5396 N   0  0  0  0  0  0  0  0  0  0  0  0
    0.8371   -3.6421    0.4277 C   0  0  0  0  0  0  0  0  0  0  0  0
    1.8249   -4.3372    0.5583 O   0  0  0  0  0  0  0  0  0  0  0  0
    0.4260   -3.3765   -0.8174 N   0  0  0  0  0  0  0  0  0  0  0  0
   -0.6607   -2.6145   -1.0641 C   0  0  0  0  0  0  0  0  0  0  0  0
   -1.0219   -2.3829   -2.1979 O   0  0  0  0  0  0  0  0  0  0  0  0
   -2.8578   -2.5579    0.0567 C   0  0  0  0  0  0  0  0  0  0  0  0
   -2.8769   -4.0835    0.1710 C   0  0  0  0  0  0  0  0  0  0  0  0
    1.0039    1.9031    0.0027 H   0  0  0  0  0  0  0  0  0  0  0  0
   -0.5459    1.8868   -0.8726 H   0  0  0  0  0  0  0  0  0  0  0  0
   -0.5289    1.8773    0.9072 H   0  0  0  0  0  0  0  0  0  0  0  0
    0.5123   -0.3556   -0.8948 H   0  0  0  0  0  0  0  0  0  0  0  0
    0.5293   -0.3651    0.8851 H   0  0  0  0  0  0  0  0  0  0  0  0
   -3.1578   -0.5085   -1.2779 H   0  0  0  0  0  0  0  0  0  0  0  0
   -2.1495    0.9555   -1.3693 H   0  0  0  0  0  0  0  0  0  0  0  0
   -1.5984   -0.5539   -2.1349 H   0  0  0  0  0  0  0  0  0  0  0  0
    0.6104   -3.4420    2.4022 H   0  0  0  0  0  0  0  0  0  0  0  0
    0.9234   -3.7428   -1.5653 H   0  0  0  0  0  0  0  0  0  0  0  0
   -3.4338   -2.1250    0.8746 H   0  0  0  0  0  0  0  0  0  0  0  0
   -3.2973   -2.2593   -0.8951 H   0  0  0  0  0  0  0  0  0  0  0  0
   -2.3009   -4.5164   -0.6469 H   0  0  0  0  0  0  0  0  0  0  0  0
   -2.4374   -4.3820    1.1228 H   0  0  0  0  0  0  0  0  0  0  0  0
   -3.9060   -4.4389    0.1186 H   0  0  0  0  0  0  0  0  0  0  0  0
  1  2  1  0  0  0  0
  1 17  1  0  0  0  0
  1 18  1  0  0  0  0
  1 19  1  0  0  0  0
  2  3  1  0  0  0  0
  2 20  1  0  0  0  0
  2 21  1  0  0  0  0
  3  4  1  1  0  0  0
  3  5  1  0  0  0  0
  3  6  1  0  0  0  0
  5 22  1  0  0  0  0
  5 23  1  0  0  0  0
  5 24  1  0  0  0  0
  6 13  1  0  0  0  0
  6  7  1  0  0  0  0
  6 15  1  0  0  0  0
  7  8  2  0  0  0  0
  7  9  1  0  0  0  0
  9 10  1  0  0  0  0
  9 25  1  0  0  0  0
 10 11  2  0  0  0  0
 10 12  1  0  0  0  0
 12 13  1  0  0  0  0
 12 26  1  0  0  0  0
 13 14  2  0  0  0  0
 15 16  1  0  0  0  0
 15 27  1  0  0  0  0
 15 28  1  0  0  0  0
 16 29  1  0  0  0  0
 16 30  1  0  0  0  0
 16 31  1  0  0  0  0
M  END
$$$$
