ZINC13298720
 OpenBabel08292219463D

 34 34  0  0  1  0  0  0  0  0999 V2000
    1.7808   -2.2401    2.1485 C   0  0  0  0  0  0  0  0  0  0  0  0
    0.8700   -1.8238    0.9918 C   0  0  0  0  0  0  0  0  0  0  0  0
   -0.5018   -2.4798    1.1612 C   0  0  0  0  0  0  0  0  0  0  0  0
   -1.4126   -2.0635    0.0045 C   0  0  2  0  0  0  0  0  0  0  0  0
   -0.9298   -2.3040   -0.9427 H   0  0  0  0  0  0  0  0  0  0  0  0
   -1.6724   -0.5574    0.0765 C   0  0  0  0  0  0  0  0  0  0  0  0
   -2.7411   -2.8156    0.1052 C   0  0  1  0  0  0  0  0  0  0  0  0
   -3.4532   -2.3497    1.3604 C   0  0  0  0  0  0  0  0  0  0  0  0
   -2.8783   -2.4705    2.5689 O   0  5  0  0  0  0  0  0  0  0  0  0
   -4.6443   -1.8263    1.2294 N   0  0  0  0  0  0  0  0  0  0  0  0
   -5.2463   -1.6902    0.0438 C   0  0  0  0  0  0  0  0  0  0  0  0
   -4.7179   -2.0631   -1.1286 N   0  0  0  0  0  0  0  0  0  0  0  0
   -3.4913   -2.6263   -1.2004 C   0  0  0  0  0  0  0  0  0  0  0  0
   -3.0112   -2.9646   -2.2611 O   0  0  0  0  0  0  0  0  0  0  0  0
   -6.8071   -0.9870    0.0227 S   0  0  0  0  0  0  0  0  0  0  0  0
   -2.4304   -4.3058    0.2594 C   0  0  0  0  0  0  0  0  0  0  0  0
   -3.7194   -5.0797    0.3619 C   0  0  0  0  0  0  0  0  0  0  0  0
   -3.9571   -6.0687   -0.4637 C   0  0  0  0  0  0  0  0  0  0  0  0
    2.7581   -1.7728    2.0278 H   0  0  0  0  0  0  0  0  0  0  0  0
    1.3390   -1.9199    3.0921 H   0  0  0  0  0  0  0  0  0  0  0  0
    1.8941   -3.3242    2.1497 H   0  0  0  0  0  0  0  0  0  0  0  0
    0.7567   -0.7397    0.9906 H   0  0  0  0  0  0  0  0  0  0  0  0
    1.3118   -2.1440    0.0481 H   0  0  0  0  0  0  0  0  0  0  0  0
   -0.3885   -3.5639    1.1624 H   0  0  0  0  0  0  0  0  0  0  0  0
   -0.9436   -2.1596    2.1048 H   0  0  0  0  0  0  0  0  0  0  0  0
   -0.7216   -0.0244    0.0777 H   0  0  0  0  0  0  0  0  0  0  0  0
   -2.2610   -0.2486   -0.7873 H   0  0  0  0  0  0  0  0  0  0  0  0
   -2.2196   -0.3264    0.9904 H   0  0  0  0  0  0  0  0  0  0  0  0
   -5.2262   -1.9265   -1.9434 H   0  0  0  0  0  0  0  0  0  0  0  0
   -1.8673   -4.6511   -0.6077 H   0  0  0  0  0  0  0  0  0  0  0  0
   -1.8399   -4.4623    1.1621 H   0  0  0  0  0  0  0  0  0  0  0  0
   -4.4473   -4.8190    1.1159 H   0  0  0  0  0  0  0  0  0  0  0  0
   -4.8809   -6.6233   -0.3902 H   0  0  0  0  0  0  0  0  0  0  0  0
   -3.2292   -6.3294   -1.2177 H   0  0  0  0  0  0  0  0  0  0  0  0
  1  2  1  0  0  0  0
  1 19  1  0  0  0  0
  1 20  1  0  0  0  0
  1 21  1  0  0  0  0
  2  3  1  0  0  0  0
  2 22  1  0  0  0  0
  2 23  1  0  0  0  0
  3  4  1  0  0  0  0
  3 24  1  0  0  0  0
  3 25  1  0  0  0  0
  4  5  1  6  0  0  0
  4  6  1  0  0  0  0
  4  7  1  0  0  0  0
  6 26  1  0  0  0  0
  6 27  1  0  0  0  0
  6 28  1  0  0  0  0
  7  8  1  0  0  0  0
  7 16  1  1  0  0  0
  7 13  1  0  0  0  0
  8  9  1  0  0  0  0
  8 10  2  0  0  0  0
 10 11  1  0  0  0  0
 11 12  1  0  0  0  0
 11 15  2  0  0  0  0
 12 13  1  0  0  0  0
 12 29  1  0  0  0  0
 13 14  2  0  0  0  0
 16 17  1  0  0  0  0
 16 30  1  0  0  0  0
 16 31  1  0  0  0  0
 17 18  2  0  0  0  0
 17 32  1  0  0  0  0
 18 33  1  0  0  0  0
 18 34  1  0  0  0  0
M  CHG  1   9  -1
M  END
$$$$
