ZINC01530796
 OpenBabel08292219463D

 31 32  0  0  1  0  0  0  0  0999 V2000
    0.7064   -0.4907    1.2416 C   0  0  0  0  0  0  0  0  0  0  0  0
   -0.0063    0.0218   -0.0116 C   0  0  0  0  0  0  0  0  0  0  0  0
    0.7857   -0.3913   -1.2537 C   0  0  1  0  0  0  0  0  0  0  0  0
    0.8014   -1.9196   -1.3662 C   0  0  0  0  0  0  0  0  0  0  0  0
   -0.6343   -2.4072   -1.5886 C   0  0  0  0  0  0  0  0  0  0  0  0
   -1.2084   -1.7182   -2.7983 C   0  0  0  0  0  0  0  0  0  0  0  0
   -2.0536   -2.2831   -3.4588 O   0  0  0  0  0  0  0  0  0  0  0  0
   -0.8032   -0.4914   -3.1589 N   0  0  0  0  0  0  0  0  0  0  0  0
    0.1344    0.1880   -2.4816 C   0  0  0  0  0  0  0  0  0  0  0  0
    0.4637    1.2898   -2.8654 O   0  0  0  0  0  0  0  0  0  0  0  0
    2.1986    0.1213   -1.1437 C   0  0  0  0  0  0  0  0  0  0  0  0
    3.2628   -0.7493   -1.2864 C   0  0  0  0  0  0  0  0  0  0  0  0
    4.5588   -0.2791   -1.1854 C   0  0  0  0  0  0  0  0  0  0  0  0
    4.7906    1.0618   -0.9423 C   0  0  0  0  0  0  0  0  0  0  0  0
    3.7263    1.9326   -0.8005 C   0  0  0  0  0  0  0  0  0  0  0  0
    2.4304    1.4631   -0.9057 C   0  0  0  0  0  0  0  0  0  0  0  0
    0.6985   -1.5807    1.2439 H   0  0  0  0  0  0  0  0  0  0  0  0
    1.7367   -0.1349    1.2448 H   0  0  0  0  0  0  0  0  0  0  0  0
    0.1918   -0.1218    2.1288 H   0  0  0  0  0  0  0  0  0  0  0  0
   -1.0078   -0.4056   -0.0604 H   0  0  0  0  0  0  0  0  0  0  0  0
   -0.0767    1.1088    0.0295 H   0  0  0  0  0  0  0  0  0  0  0  0
    1.4241   -2.2181   -2.2094 H   0  0  0  0  0  0  0  0  0  0  0  0
    1.1957   -2.3503   -0.4458 H   0  0  0  0  0  0  0  0  0  0  0  0
   -0.6319   -3.4851   -1.7502 H   0  0  0  0  0  0  0  0  0  0  0  0
   -1.2391   -2.1704   -0.7133 H   0  0  0  0  0  0  0  0  0  0  0  0
   -1.2039   -0.0793   -3.9403 H   0  0  0  0  0  0  0  0  0  0  0  0
    3.0817   -1.7969   -1.4763 H   0  0  0  0  0  0  0  0  0  0  0  0
    5.3902   -0.9594   -1.2962 H   0  0  0  0  0  0  0  0  0  0  0  0
    5.8031    1.4291   -0.8628 H   0  0  0  0  0  0  0  0  0  0  0  0
    3.9074    2.9802   -0.6102 H   0  0  0  0  0  0  0  0  0  0  0  0
    1.5990    2.1441   -0.7986 H   0  0  0  0  0  0  0  0  0  0  0  0
  1  2  1  0  0  0  0
  1 17  1  0  0  0  0
  1 18  1  0  0  0  0
  1 19  1  0  0  0  0
  2 20  1  0  0  0  0
  2 21  1  0  0  0  0
  3  2  1  1  0  0  0
  3  9  1  0  0  0  0
  3  4  1  0  0  0  0
  3 11  1  0  0  0  0
  4  5  1  0  0  0  0
  4 22  1  0  0  0  0
  4 23  1  0  0  0  0
  5  6  1  0  0  0  0
  5 24  1  0  0  0  0
  5 25  1  0  0  0  0
  6  7  2  0  0  0  0
  6  8  1  0  0  0  0
  8  9  1  0  0  0  0
  8 26  1  0  0  0  0
  9 10  2  0  0  0  0
 11 16  2  0  0  0  0
 11 12  1  0  0  0  0
 12 13  2  0  0  0  0
 12 27  1  0  0  0  0
 13 14  1  0  0  0  0
 13 28  1  0  0  0  0
 14 15  2  0  0  0  0
 14 29  1  0  0  0  0
 15 16  1  0  0  0  0
 15 30  1  0  0  0  0
 16 31  1  0  0  0  0
M  END
$$$$
