ZINC00001925
 OpenBabel08292219463D

 26 28  0  0  0  0  0  0  0  0999 V2000
   -0.0167    1.3793    0.0096 C   0  0  0  0  0  0  0  0  0  0  0  0
    1.1685    2.0932    0.0021 C   0  0  0  0  0  0  0  0  0  0  0  0
    2.3774    1.4286   -0.0129 C   0  0  0  0  0  0  0  0  0  0  0  0
    2.4032    0.0336   -0.0206 C   0  0  0  0  0  0  0  0  0  0  0  0
    1.2044   -0.6805   -0.0130 C   0  0  0  0  0  0  0  0  0  0  0  0
    0.0021   -0.0041    0.0020 C   0  0  0  0  0  0  0  0  0  0  0  0
    3.6965   -0.6857   -0.0373 C   0  0  0  0  0  0  0  0  0  0  0  0
    4.1617   -1.4970   -1.0816 C   0  0  0  0  0  0  0  0  0  0  0  0
    5.4971   -2.0269   -0.7001 C   0  0  0  0  0  0  0  0  0  0  0  0
    6.3971   -2.8603   -1.3368 C   0  0  0  0  0  0  0  0  0  0  0  0
    7.5996   -3.1888   -0.7132 C   0  0  0  0  0  0  0  0  0  0  0  0
    7.8947   -2.6872    0.5341 C   0  0  0  0  0  0  0  0  0  0  0  0
    6.9935   -1.8462    1.1849 C   0  0  0  0  0  0  0  0  0  0  0  0
    5.7989   -1.5137    0.5748 C   0  0  0  0  0  0  0  0  0  0  0  0
    4.6541   -0.6594    0.9861 C   0  0  0  0  0  0  0  0  0  0  0  0
    4.5622   -0.0414    2.0388 O   0  5  0  0  0  0  0  0  0  0  0  0
    3.5697   -1.7295   -2.1275 O   0  0  0  0  0  0  0  0  0  0  0  0
   -0.9604    1.9042    0.0260 H   0  0  0  0  0  0  0  0  0  0  0  0
    1.1472    3.1730    0.0078 H   0  0  0  0  0  0  0  0  0  0  0  0
    3.3019    1.9870   -0.0191 H   0  0  0  0  0  0  0  0  0  0  0  0
    1.2178   -1.7604   -0.0193 H   0  0  0  0  0  0  0  0  0  0  0  0
   -0.9265   -0.5556    0.0082 H   0  0  0  0  0  0  0  0  0  0  0  0
    6.1689   -3.2564   -2.3152 H   0  0  0  0  0  0  0  0  0  0  0  0
    8.3029   -3.8401   -1.2109 H   0  0  0  0  0  0  0  0  0  0  0  0
    8.8283   -2.9467    1.0108 H   0  0  0  0  0  0  0  0  0  0  0  0
    7.2283   -1.4553    2.1638 H   0  0  0  0  0  0  0  0  0  0  0  0
  1  6  2  0  0  0  0
  1  2  1  0  0  0  0
  1 18  1  0  0  0  0
  2  3  2  0  0  0  0
  2 19  1  0  0  0  0
  3  4  1  0  0  0  0
  3 20  1  0  0  0  0
  4  5  2  0  0  0  0
  4  7  1  0  0  0  0
  5  6  1  0  0  0  0
  5 21  1  0  0  0  0
  6 22  1  0  0  0  0
  7  8  1  0  0  0  0
  7 15  2  0  0  0  0
  8  9  1  0  0  0  0
  8 17  2  0  0  0  0
  9 14  2  0  0  0  0
  9 10  1  0  0  0  0
 10 11  2  0  0  0  0
 10 23  1  0  0  0  0
 11 12  1  0  0  0  0
 11 24  1  0  0  0  0
 12 13  2  0  0  0  0
 12 25  1  0  0  0  0
 13 14  1  0  0  0  0
 13 26  1  0  0  0  0
 14 15  1  0  0  0  0
 15 16  1  0  0  0  0
M  CHG  1  16  -1
M  END
$$$$
