ZINC00968360
 OpenBabel08292219463D

 49 52  0  0  1  0  0  0  0  0999 V2000
    3.3904   -1.0686    1.3596 C   0  0  0  0  0  0  0  0  0  0  0  0
    2.2270   -1.8016    0.8426 N   0  3  2  0  0  0  0  0  0  0  0  0
    1.0087   -0.9500    0.8889 C   0  0  2  0  0  0  0  0  0  0  0  0
    1.1973    0.0598    0.5245 H   0  0  0  0  0  0  0  0  0  0  0  0
    0.5905   -0.9658    2.3773 C   0  0  0  0  0  0  0  0  0  0  0  0
    1.1707   -2.2813    2.9369 C   0  0  0  0  0  0  0  0  0  0  0  0
    1.8867   -2.9409    1.7358 C   0  0  1  0  0  0  0  0  0  0  0  0
    2.7689   -3.5040    2.0404 H   0  0  0  0  0  0  0  0  0  0  0  0
    0.8579   -3.8095    0.9944 C   0  0  0  0  0  0  0  0  0  0  0  0
   -0.4211   -2.9937    0.7855 C   0  0  2  0  0  0  0  0  0  0  0  0
   -0.0791   -1.6663    0.0728 C   0  0  0  0  0  0  0  0  0  0  0  0
   -1.0224   -2.7199    2.0525 O   0  0  0  0  0  0  0  0  0  0  0  0
   -2.0131   -3.6726    2.4437 C   0  0  0  0  0  0  0  0  0  0  0  0
   -2.1179   -3.6999    3.9468 C   0  0  0  0  0  0  0  0  0  0  0  0
   -2.0585   -2.5205    4.6654 C   0  0  0  0  0  0  0  0  0  0  0  0
   -2.1546   -2.5456    6.0442 C   0  0  0  0  0  0  0  0  0  0  0  0
   -2.3105   -3.7501    6.7043 C   0  0  0  0  0  0  0  0  0  0  0  0
   -2.3708   -4.9294    5.9857 C   0  0  0  0  0  0  0  0  0  0  0  0
   -2.2790   -4.9039    4.6066 C   0  0  0  0  0  0  0  0  0  0  0  0
   -3.3444   -3.2836    1.8544 C   0  0  0  0  0  0  0  0  0  0  0  0
   -3.6951   -1.9499    1.7593 C   0  0  0  0  0  0  0  0  0  0  0  0
   -4.9163   -1.5931    1.2187 C   0  0  0  0  0  0  0  0  0  0  0  0
   -5.7867   -2.5701    0.7728 C   0  0  0  0  0  0  0  0  0  0  0  0
   -5.4356   -3.9038    0.8670 C   0  0  0  0  0  0  0  0  0  0  0  0
   -4.2126   -4.2604    1.4036 C   0  0  0  0  0  0  0  0  0  0  0  0
    4.2470   -1.7403    1.4169 H   0  0  0  0  0  0  0  0  0  0  0  0
    3.6232   -0.2391    0.6920 H   0  0  0  0  0  0  0  0  0  0  0  0
    3.1643   -0.6826    2.3536 H   0  0  0  0  0  0  0  0  0  0  0  0
    1.0175   -0.1101    2.9003 H   0  0  0  0  0  0  0  0  0  0  0  0
   -0.4958   -0.9622    2.4661 H   0  0  0  0  0  0  0  0  0  0  0  0
    1.8830   -2.0725    3.7351 H   0  0  0  0  0  0  0  0  0  0  0  0
    0.3696   -2.9246    3.3009 H   0  0  0  0  0  0  0  0  0  0  0  0
    1.2621   -4.1087    0.0273 H   0  0  0  0  0  0  0  0  0  0  0  0
    0.6329   -4.6956    1.5879 H   0  0  0  0  0  0  0  0  0  0  0  0
   -1.1176   -3.5627    0.1698 H   0  0  0  0  0  0  0  0  0  0  0  0
   -0.9701   -1.0404    0.0234 H   0  0  0  0  0  0  0  0  0  0  0  0
    0.2889   -1.8607   -0.9346 H   0  0  0  0  0  0  0  0  0  0  0  0
   -1.7300   -4.6608    2.0812 H   0  0  0  0  0  0  0  0  0  0  0  0
   -1.9366   -1.5795    4.1496 H   0  0  0  0  0  0  0  0  0  0  0  0
   -2.1075   -1.6242    6.6056 H   0  0  0  0  0  0  0  0  0  0  0  0
   -2.3849   -3.7697    7.7816 H   0  0  0  0  0  0  0  0  0  0  0  0
   -2.4923   -5.8705    6.5015 H   0  0  0  0  0  0  0  0  0  0  0  0
   -2.3299   -5.8249    4.0449 H   0  0  0  0  0  0  0  0  0  0  0  0
   -3.0151   -1.1866    2.1077 H   0  0  0  0  0  0  0  0  0  0  0  0
   -5.1906   -0.5511    1.1451 H   0  0  0  0  0  0  0  0  0  0  0  0
   -6.7411   -2.2914    0.3510 H   0  0  0  0  0  0  0  0  0  0  0  0
   -6.1158   -4.6671    0.5189 H   0  0  0  0  0  0  0  0  0  0  0  0
   -3.9368   -5.3022    1.4738 H   0  0  0  0  0  0  0  0  0  0  0  0
    2.4007   -2.1262   -0.0968 H   0  0  0  0  0  0  0  0  0  0  0  0
  1  2  1  0  0  0  0
  1 26  1  0  0  0  0
  1 27  1  0  0  0  0
  1 28  1  0  0  0  0
  2  7  1  0  0  0  0
  2  3  1  0  0  0  0
  2 49  1  6  0  0  0
  3  4  1  6  0  0  0
  3 11  1  0  0  0  0
  3  5  1  0  0  0  0
  5  6  1  0  0  0  0
  5 29  1  0  0  0  0
  5 30  1  0  0  0  0
  6  7  1  0  0  0  0
  6 31  1  0  0  0  0
  6 32  1  0  0  0  0
  7  8  1  1  0  0  0
  7  9  1  0  0  0  0
  9 10  1  0  0  0  0
  9 33  1  0  0  0  0
  9 34  1  0  0  0  0
 10 11  1  0  0  0  0
 10 12  1  0  0  0  0
 10 35  1  6  0  0  0
 11 36  1  0  0  0  0
 11 37  1  0  0  0  0
 12 13  1  0  0  0  0
 13 14  1  0  0  0  0
 13 20  1  0  0  0  0
 13 38  1  0  0  0  0
 14 19  2  0  0  0  0
 14 15  1  0  0  0  0
 15 16  2  0  0  0  0
 15 39  1  0  0  0  0
 16 17  1  0  0  0  0
 16 40  1  0  0  0  0
 17 18  2  0  0  0  0
 17 41  1  0  0  0  0
 18 19  1  0  0  0  0
 18 42  1  0  0  0  0
 19 43  1  0  0  0  0
 20 25  2  0  0  0  0
 20 21  1  0  0  0  0
 21 22  2  0  0  0  0
 21 44  1  0  0  0  0
 22 23  1  0  0  0  0
 22 45  1  0  0  0  0
 23 24  2  0  0  0  0
 23 46  1  0  0  0  0
 24 25  1  0  0  0  0
 24 47  1  0  0  0  0
 25 48  1  0  0  0  0
M  CHG  1   2   1
M  END
$$$$
