ZINC01999487
 OpenBabel08292219463D

 35 38  0  0  1  0  0  0  0  0999 V2000
   -0.0165    1.3692    0.0096 C   0  0  0  0  0  0  0  0  0  0  0  0
    1.1790    2.0645    0.0019 C   0  0  0  0  0  0  0  0  0  0  0  0
    2.3611    1.3633    0.0120 C   0  0  0  0  0  0  0  0  0  0  0  0
    2.3830   -0.0355    0.0128 C   0  0  0  0  0  0  0  0  0  0  0  0
    1.2044   -0.7250   -0.0226 C   0  0  0  0  0  0  0  0  0  0  0  0
    0.0021   -0.0041    0.0020 C   0  0  0  0  0  0  0  0  0  0  0  0
    1.0239   -2.2029   -0.1493 C   0  0  0  0  0  0  0  0  0  0  0  0
    1.8268   -3.0410    0.7898 C   0  0  0  0  0  0  0  0  0  0  0  0
    1.2189   -3.8252    1.7504 C   0  0  0  0  0  0  0  0  0  0  0  0
    1.9861   -4.6498    2.5533 C   0  0  0  0  0  0  0  0  0  0  0  0
    3.3590   -4.6971    2.3919 C   0  0  0  0  0  0  0  0  0  0  0  0
    3.9740   -3.8919    1.4526 C   0  0  0  0  0  0  0  0  0  0  0  0
    3.2077   -3.0339    0.6757 C   0  0  0  0  0  0  0  0  0  0  0  0
    3.8186   -2.0697   -0.1229 N   0  0  0  0  0  0  0  0  0  0  0  0
    3.7575   -0.6327    0.0894 C   0  0  1  0  0  0  0  0  0  0  0  0
    4.2121   -0.3842    1.0484 H   0  0  0  0  0  0  0  0  0  0  0  0
    4.6252   -0.0566   -1.0498 C   0  0  0  0  0  0  0  0  0  0  0  0
    5.0594   -1.2478   -1.7937 N   0  0  0  0  0  4  0  0  0  0  0  0
    4.5835   -2.3147   -1.2384 C   0  0  0  0  0  0  0  0  0  0  0  0
    4.8212   -3.5802   -1.7207 N   0  0  0  0  0  0  0  0  0  0  0  0
   -0.9562    1.9014    0.0259 H   0  0  0  0  0  0  0  0  0  0  0  0
    1.1837    3.1444   -0.0123 H   0  0  0  0  0  0  0  0  0  0  0  0
    3.2953    1.9052    0.0192 H   0  0  0  0  0  0  0  0  0  0  0  0
   -0.9339   -0.5428    0.0154 H   0  0  0  0  0  0  0  0  0  0  0  0
   -0.0303   -2.4317    0.0068 H   0  0  0  0  0  0  0  0  0  0  0  0
    1.2821   -2.4912   -1.1683 H   0  0  0  0  0  0  0  0  0  0  0  0
    0.1466   -3.7944    1.8748 H   0  0  0  0  0  0  0  0  0  0  0  0
    1.5116   -5.2584    3.3088 H   0  0  0  0  0  0  0  0  0  0  0  0
    3.9510   -5.3641    3.0011 H   0  0  0  0  0  0  0  0  0  0  0  0
    5.0455   -3.9301    1.3232 H   0  0  0  0  0  0  0  0  0  0  0  0
    4.0332    0.5991   -1.6882 H   0  0  0  0  0  0  0  0  0  0  0  0
    5.4852    0.4764   -0.6442 H   0  0  0  0  0  0  0  0  0  0  0  0
    4.4420   -4.3505   -1.2692 H   0  0  0  0  0  0  0  0  0  0  0  0
    5.3681   -3.7027   -2.5124 H   0  0  0  0  0  0  0  0  0  0  0  0
    5.6205   -1.2356   -2.5849 H   0  0  0  0  0  0  0  0  0  0  0  0
  1  6  2  0  0  0  0
  1  2  1  0  0  0  0
  1 21  1  0  0  0  0
  2  3  2  0  0  0  0
  2 22  1  0  0  0  0
  3  4  1  0  0  0  0
  3 23  1  0  0  0  0
  4 15  1  0  0  0  0
  4  5  2  0  0  0  0
  5  6  1  0  0  0  0
  5  7  1  0  0  0  0
  6 24  1  0  0  0  0
  7  8  1  0  0  0  0
  7 25  1  0  0  0  0
  7 26  1  0  0  0  0
  8 13  2  0  0  0  0
  8  9  1  0  0  0  0
  9 10  2  0  0  0  0
  9 27  1  0  0  0  0
 10 11  1  0  0  0  0
 10 28  1  0  0  0  0
 11 12  2  0  0  0  0
 11 29  1  0  0  0  0
 12 13  1  0  0  0  0
 12 30  1  0  0  0  0
 13 14  1  0  0  0  0
 14 19  1  0  0  0  0
 14 15  1  0  0  0  0
 15 16  1  1  0  0  0
 15 17  1  0  0  0  0
 17 18  1  0  0  0  0
 17 31  1  0  0  0  0
 17 32  1  0  0  0  0
 18 19  2  0  0  0  0
 18 35  1  0  0  0  0
 19 20  1  0  0  0  0
 20 33  1  0  0  0  0
 20 34  1  0  0  0  0
M  END
$$$$
