ZINC00538273
 OpenBabel08292219463D

 46 49  0  0  1  0  0  0  0  0999 V2000
   -0.0187    1.5258    0.0104 C   0  0  0  0  0  0  0  0  0  0  0  0
    0.0021   -0.0041    0.0020 C   0  0  1  0  0  0  0  0  0  0  0  0
   -1.0203   -0.3819    0.0098 H   0  0  0  0  0  0  0  0  0  0  0  0
    0.7201   -0.4985   -1.2565 C   0  0  0  0  0  0  0  0  0  0  0  0
    0.8511   -1.9233   -1.1803 O   0  0  0  0  0  0  0  0  0  0  0  0
    1.4737   -2.4030   -0.0677 C   0  0  0  0  0  0  0  0  0  0  0  0
    1.4165   -1.6828    1.1242 C   0  0  0  0  0  0  0  0  0  0  0  0
    0.7148   -0.4920    1.1925 N   0  0  0  0  0  0  0  0  0  0  0  0
    0.6609    0.2389    2.3166 C   0  0  0  0  0  0  0  0  0  0  0  0
    1.2772   -0.1508    3.4882 C   0  0  0  0  0  0  0  0  0  0  0  0
    2.0263   -1.4188    3.5118 C   0  0  0  0  0  0  0  0  0  0  0  0
    2.5801   -1.8122    4.5236 O   0  0  0  0  0  0  0  0  0  0  0  0
    2.0773   -2.1901    2.2569 C   0  0  0  0  0  0  0  0  0  0  0  0
    2.7674   -3.4034    2.1893 C   0  0  0  0  0  0  0  0  0  0  0  0
    2.8070   -4.1020    1.0154 C   0  0  0  0  0  0  0  0  0  0  0  0
    2.1627   -3.6063   -0.1197 C   0  0  0  0  0  0  0  0  0  0  0  0
    2.2112   -4.3266   -1.3147 N   0  0  0  0  0  0  0  0  0  0  0  0
    1.1831   -5.3284   -1.6364 C   0  0  0  0  0  0  0  0  0  0  0  0
    1.8831   -6.6290   -2.0442 C   0  0  0  0  0  0  0  0  0  0  0  0
    2.8251   -6.3550   -3.1367 N   0  3  1  0  0  0  0  0  0  0  0  0
    3.8921   -5.4632   -2.6651 C   0  0  0  0  0  0  0  0  0  0  0  0
    3.2886   -4.1008   -2.2907 C   0  0  0  0  0  0  0  0  0  0  0  0
    3.4144   -7.6179   -3.6010 C   0  0  0  0  0  0  0  0  0  0  0  0
    3.4724   -5.2761    0.9529 F   0  0  0  0  0  0  0  0  0  0  0  0
    1.1882    0.6842    4.6901 C   0  0  0  0  0  0  0  0  0  0  0  0
    0.5634    1.7364    4.6595 O   0  0  0  0  0  0  0  0  0  0  0  0
    1.7387    0.3291    5.7242 O   0  0  0  0  0  1  0  0  0  0  0  0
    1.0039    1.9031    0.0027 H   0  0  0  0  0  0  0  0  0  0  0  0
   -0.5459    1.8868   -0.8726 H   0  0  0  0  0  0  0  0  0  0  0  0
   -0.5289    1.8773    0.9072 H   0  0  0  0  0  0  0  0  0  0  0  0
    0.1379   -0.2315   -2.1384 H   0  0  0  0  0  0  0  0  0  0  0  0
    1.7086   -0.0431   -1.3163 H   0  0  0  0  0  0  0  0  0  0  0  0
    0.1134    1.1698    2.3038 H   0  0  0  0  0  0  0  0  0  0  0  0
    3.2697   -3.7887    3.0644 H   0  0  0  0  0  0  0  0  0  0  0  0
    0.5593   -5.5072   -0.7607 H   0  0  0  0  0  0  0  0  0  0  0  0
    0.5675   -4.9696   -2.4612 H   0  0  0  0  0  0  0  0  0  0  0  0
    2.4254   -7.0333   -1.1895 H   0  0  0  0  0  0  0  0  0  0  0  0
    1.1395   -7.3526   -2.3783 H   0  0  0  0  0  0  0  0  0  0  0  0
    4.3736   -5.9028   -1.7916 H   0  0  0  0  0  0  0  0  0  0  0  0
    4.6289   -5.3278   -3.4569 H   0  0  0  0  0  0  0  0  0  0  0  0
    2.8819   -3.6202   -3.1804 H   0  0  0  0  0  0  0  0  0  0  0  0
    4.0573   -3.4677   -1.8477 H   0  0  0  0  0  0  0  0  0  0  0  0
    2.6241   -8.2778   -3.9588 H   0  0  0  0  0  0  0  0  0  0  0  0
    4.1140   -7.4159   -4.4121 H   0  0  0  0  0  0  0  0  0  0  0  0
    3.9425   -8.0972   -2.7766 H   0  0  0  0  0  0  0  0  0  0  0  0
    2.3338   -5.9151   -3.9004 H   0  0  0  0  0  0  0  0  0  0  0  0
  1  2  1  0  0  0  0
  1 28  1  0  0  0  0
  1 29  1  0  0  0  0
  1 30  1  0  0  0  0
  2  3  1  1  0  0  0
  2  8  1  0  0  0  0
  2  4  1  0  0  0  0
  4  5  1  0  0  0  0
  4 31  1  0  0  0  0
  4 32  1  0  0  0  0
  5  6  1  0  0  0  0
  6 16  2  0  0  0  0
  6  7  1  0  0  0  0
  7 13  2  0  0  0  0
  7  8  1  0  0  0  0
  8  9  1  0  0  0  0
  9 10  2  0  0  0  0
  9 33  1  0  0  0  0
 10 11  1  0  0  0  0
 10 25  1  0  0  0  0
 11 12  2  0  0  0  0
 11 13  1  0  0  0  0
 13 14  1  0  0  0  0
 14 15  2  0  0  0  0
 14 34  1  0  0  0  0
 15 16  1  0  0  0  0
 15 24  1  0  0  0  0
 16 17  1  0  0  0  0
 17 22  1  0  0  0  0
 17 18  1  0  0  0  0
 18 19  1  0  0  0  0
 18 35  1  0  0  0  0
 18 36  1  0  0  0  0
 19 20  1  0  0  0  0
 19 37  1  0  0  0  0
 19 38  1  0  0  0  0
 20 21  1  0  0  0  0
 20 23  1  0  0  0  0
 20 46  1  6  0  0  0
 21 22  1  0  0  0  0
 21 39  1  0  0  0  0
 21 40  1  0  0  0  0
 22 41  1  0  0  0  0
 22 42  1  0  0  0  0
 23 43  1  0  0  0  0
 23 44  1  0  0  0  0
 23 45  1  0  0  0  0
 25 26  2  0  0  0  0
 25 27  1  0  0  0  0
M  CHG  1  20   1
M  END
$$$$
