ZINC09225358
 OpenBabel08292219463D

 29 30  0  0  0  0  0  0  0  0999 V2000
   -1.4067   -3.3082    0.0480 C   0  0  0  0  0  0  0  0  0  0  0  0
   -0.6774   -2.0426    0.4188 C   0  0  0  0  0  0  0  0  0  0  0  0
   -1.1579   -0.7820    0.3021 C   0  0  0  0  0  0  0  0  0  0  0  0
   -0.1602    0.0845    0.7567 N   0  0  0  0  0  0  0  0  0  0  0  0
   -0.2156    1.0522    0.7937 H   0  0  0  0  0  0  0  0  0  0  0  0
    0.8924   -0.6670    1.1348 C   0  0  0  0  0  0  0  0  0  0  0  0
    1.9422   -0.2446    1.5832 O   0  0  0  0  0  0  0  0  0  0  0  0
    0.5866   -1.9632    0.9391 N   0  0  0  0  0  0  0  0  0  0  0  0
    1.1668   -2.7163    1.1321 H   0  0  0  0  0  0  0  0  0  0  0  0
   -2.4778   -0.3982   -0.2059 C   0  0  0  0  0  0  0  0  0  0  0  0
   -3.3030   -1.2552   -0.4660 O   0  0  0  0  0  0  0  0  0  0  0  0
   -2.8069    1.0266   -0.4023 C   0  0  0  0  0  0  0  0  0  0  0  0
   -1.7846    1.9622   -0.5911 C   0  0  0  0  0  0  0  0  0  0  0  0
   -2.0934    3.2853   -0.7733 C   0  0  0  0  0  0  0  0  0  0  0  0
   -3.4239    3.6984   -0.7701 C   0  0  0  0  0  0  0  0  0  0  0  0
   -4.4443    2.7687   -0.5823 C   0  0  0  0  0  0  0  0  0  0  0  0
   -4.1419    1.4433   -0.4059 C   0  0  0  0  0  0  0  0  0  0  0  0
   -3.8169    5.4001   -1.0035 S   0  0  0  0  0  0  0  0  0  0  0  0
   -5.6284    5.4473   -0.9227 C   0  0  0  0  0  0  0  0  0  0  0  0
   -0.8090   -4.1712    0.3415 H   0  0  0  0  0  0  0  0  0  0  0  0
   -2.3666   -3.3388    0.5635 H   0  0  0  0  0  0  0  0  0  0  0  0
   -1.5718   -3.3301   -1.0292 H   0  0  0  0  0  0  0  0  0  0  0  0
   -0.7530    1.6427   -0.5930 H   0  0  0  0  0  0  0  0  0  0  0  0
   -1.3045    4.0083   -0.9191 H   0  0  0  0  0  0  0  0  0  0  0  0
   -5.4748    3.0918   -0.5800 H   0  0  0  0  0  0  0  0  0  0  0  0
   -4.9336    0.7224   -0.2648 H   0  0  0  0  0  0  0  0  0  0  0  0
   -5.9585    5.0790    0.0486 H   0  0  0  0  0  0  0  0  0  0  0  0
   -5.9716    6.4729   -1.0582 H   0  0  0  0  0  0  0  0  0  0  0  0
   -6.0437    4.8182   -1.7101 H   0  0  0  0  0  0  0  0  0  0  0  0
  1  2  1  0  0  0  0
  1 20  1  0  0  0  0
  1 21  1  0  0  0  0
  1 22  1  0  0  0  0
  2  8  1  0  0  0  0
  2  3  2  0  0  0  0
  3  4  1  0  0  0  0
  3 10  1  0  0  0  0
  4  5  1  0  0  0  0
  4  6  1  0  0  0  0
  6  7  2  0  0  0  0
  6  8  1  0  0  0  0
  8  9  1  0  0  0  0
 10 11  2  0  0  0  0
 10 12  1  0  0  0  0
 12 17  2  0  0  0  0
 12 13  1  0  0  0  0
 13 14  2  0  0  0  0
 13 23  1  0  0  0  0
 14 15  1  0  0  0  0
 14 24  1  0  0  0  0
 15 16  2  0  0  0  0
 15 18  1  0  0  0  0
 16 17  1  0  0  0  0
 16 25  1  0  0  0  0
 17 26  1  0  0  0  0
 18 19  1  0  0  0  0
 19 27  1  0  0  0  0
 19 28  1  0  0  0  0
 19 29  1  0  0  0  0
M  END
$$$$
