ZINC19166988
 OpenBabel08292219463D

 35 35  0  0  0  0  0  0  0  0999 V2000
   -0.0187    1.5258    0.0104 C   0  0  0  0  0  0  0  0  0  0  0  0
    0.0021   -0.0041    0.0020 C   0  0  0  0  0  0  0  0  0  0  0  0
    0.7421   -0.5109    1.2415 C   0  0  0  0  0  0  0  0  0  0  0  0
   -1.3723   -0.5112    0.0124 N   0  0  0  0  0  0  0  0  0  0  0  0
   -1.6432   -1.7342   -0.4849 C   0  0  0  0  0  0  0  0  0  0  0  0
   -0.7471   -2.4165   -0.9420 O   0  0  0  0  0  0  0  0  0  0  0  0
   -3.0302   -2.2459   -0.4744 C   0  0  0  0  0  0  0  0  0  0  0  0
   -4.0624   -1.4627    0.0445 C   0  0  0  0  0  0  0  0  0  0  0  0
   -5.3545   -1.9459    0.0509 C   0  0  0  0  0  0  0  0  0  0  0  0
   -5.6282   -3.2042   -0.4552 C   0  0  0  0  0  0  0  0  0  0  0  0
   -4.6096   -3.9859   -0.9706 C   0  0  0  0  0  0  0  0  0  0  0  0
   -3.3141   -3.5121   -0.9886 C   0  0  0  0  0  0  0  0  0  0  0  0
   -7.0420   -3.7258   -0.4445 C   0  0  0  0  0  0  0  0  0  0  0  0
   -7.7139   -3.3451   -1.6941 N   0  0  0  0  0  0  0  0  0  0  0  0
   -9.0834   -3.8328   -1.7189 N   0  0  0  0  0  0  0  0  0  0  0  0
   -9.7553   -3.4521   -2.9686 C   0  0  0  0  0  0  0  0  0  0  0  0
    1.0039    1.9031    0.0027 H   0  0  0  0  0  0  0  0  0  0  0  0
   -0.5459    1.8868   -0.8726 H   0  0  0  0  0  0  0  0  0  0  0  0
   -0.5289    1.8773    0.9072 H   0  0  0  0  0  0  0  0  0  0  0  0
    0.5123   -0.3556   -0.8948 H   0  0  0  0  0  0  0  0  0  0  0  0
    0.7568   -1.6008    1.2356 H   0  0  0  0  0  0  0  0  0  0  0  0
    1.7647   -0.1336    1.2338 H   0  0  0  0  0  0  0  0  0  0  0  0
    0.2319   -0.1594    2.1383 H   0  0  0  0  0  0  0  0  0  0  0  0
   -2.0874    0.0333    0.3772 H   0  0  0  0  0  0  0  0  0  0  0  0
   -3.8499   -0.4806    0.4405 H   0  0  0  0  0  0  0  0  0  0  0  0
   -6.1541   -1.3409    0.4521 H   0  0  0  0  0  0  0  0  0  0  0  0
   -4.8299   -4.9674   -1.3638 H   0  0  0  0  0  0  0  0  0  0  0  0
   -2.5206   -4.1213   -1.3956 H   0  0  0  0  0  0  0  0  0  0  0  0
   -7.0279   -4.8121   -0.3559 H   0  0  0  0  0  0  0  0  0  0  0  0
   -7.5803   -3.2993    0.4019 H   0  0  0  0  0  0  0  0  0  0  0  0
   -7.6833   -2.3459   -1.8312 H   0  0  0  0  0  0  0  0  0  0  0  0
   -9.1140   -4.8320   -1.5818 H   0  0  0  0  0  0  0  0  0  0  0  0
   -9.7694   -2.3658   -3.0571 H   0  0  0  0  0  0  0  0  0  0  0  0
   -9.2170   -3.8786   -3.8150 H   0  0  0  0  0  0  0  0  0  0  0  0
  -10.7779   -3.8293   -2.9609 H   0  0  0  0  0  0  0  0  0  0  0  0
  1  2  1  0  0  0  0
  1 17  1  0  0  0  0
  1 18  1  0  0  0  0
  1 19  1  0  0  0  0
  2  3  1  0  0  0  0
  2  4  1  0  0  0  0
  2 20  1  0  0  0  0
  3 21  1  0  0  0  0
  3 22  1  0  0  0  0
  3 23  1  0  0  0  0
  4  5  1  0  0  0  0
  4 24  1  0  0  0  0
  5  6  2  0  0  0  0
  5  7  1  0  0  0  0
  7 12  2  0  0  0  0
  7  8  1  0  0  0  0
  8  9  2  0  0  0  0
  8 25  1  0  0  0  0
  9 10  1  0  0  0  0
  9 26  1  0  0  0  0
 10 11  2  0  0  0  0
 10 13  1  0  0  0  0
 11 12  1  0  0  0  0
 11 27  1  0  0  0  0
 12 28  1  0  0  0  0
 13 14  1  0  0  0  0
 13 29  1  0  0  0  0
 13 30  1  0  0  0  0
 14 15  1  0  0  0  0
 14 31  1  0  0  0  0
 15 16  1  0  0  0  0
 15 32  1  0  0  0  0
 16 33  1  0  0  0  0
 16 34  1  0  0  0  0
 16 35  1  0  0  0  0
M  END
$$$$
