ZINC00020252
 OpenBabel08292219463D

 44 45  0  0  1  0  0  0  0  0999 V2000
   -0.0187    1.5258    0.0104 C   0  0  0  0  0  0  0  0  0  0  0  0
    0.0021   -0.0041    0.0020 C   0  0  2  0  0  0  0  0  0  0  0  0
   -1.0205   -0.3814    0.0098 H   0  0  0  0  0  0  0  0  0  0  0  0
    0.7421   -0.5109    1.2415 C   0  0  0  0  0  0  0  0  0  0  0  0
    0.6567   -2.0144    1.2978 C   0  0  0  0  0  0  0  0  0  0  0  0
   -0.3968   -2.6218    1.9557 C   0  0  0  0  0  0  0  0  0  0  0  0
   -0.4771   -3.9998    2.0091 C   0  0  0  0  0  0  0  0  0  0  0  0
    0.5003   -4.7745    1.4014 C   0  0  0  0  0  0  0  0  0  0  0  0
    1.5561   -4.1627    0.7414 C   0  0  0  0  0  0  0  0  0  0  0  0
    1.6291   -2.7842    0.6865 C   0  0  0  0  0  0  0  0  0  0  0  0
    0.4238   -6.1304    1.4528 O   0  0  0  0  0  0  0  0  0  0  0  0
    0.6897   -0.4778   -1.2066 N   0  3  0  0  0  0  0  0  0  0  0  0
   -0.0856   -0.0931   -2.3936 C   0  0  0  0  0  0  0  0  0  0  0  0
    0.6305   -0.5866   -3.6524 C   0  0  2  0  0  0  0  0  0  0  0  0
    1.6531   -0.2093   -3.6601 H   0  0  0  0  0  0  0  0  0  0  0  0
   -0.0983   -0.0873   -4.8733 C   0  0  0  0  0  0  0  0  0  0  0  0
   -1.2415   -0.7319   -5.3057 C   0  0  0  0  0  0  0  0  0  0  0  0
   -1.9145   -0.2741   -6.4297 C   0  0  0  0  0  0  0  0  0  0  0  0
   -1.4389    0.8308   -7.1188 C   0  0  0  0  0  0  0  0  0  0  0  0
   -0.2918    1.4758   -6.6829 C   0  0  0  0  0  0  0  0  0  0  0  0
    0.3745    1.0176   -5.5551 C   0  0  0  0  0  0  0  0  0  0  0  0
    0.1771    2.5589   -7.3566 O   0  0  0  0  0  0  0  0  0  0  0  0
   -3.0384   -0.9087   -6.8548 O   0  0  0  0  0  0  0  0  0  0  0  0
    0.6499   -2.0154   -3.6603 O   0  0  0  0  0  0  0  0  0  0  0  0
    1.0039    1.9031    0.0027 H   0  0  0  0  0  0  0  0  0  0  0  0
   -0.5459    1.8868   -0.8726 H   0  0  0  0  0  0  0  0  0  0  0  0
   -0.5289    1.8773    0.9072 H   0  0  0  0  0  0  0  0  0  0  0  0
    1.7879   -0.2080    1.1895 H   0  0  0  0  0  0  0  0  0  0  0  0
    0.2852   -0.0874    2.1360 H   0  0  0  0  0  0  0  0  0  0  0  0
   -1.1575   -2.0183    2.4286 H   0  0  0  0  0  0  0  0  0  0  0  0
   -1.2999   -4.4738    2.5237 H   0  0  0  0  0  0  0  0  0  0  0  0
    2.3183   -4.7635    0.2676 H   0  0  0  0  0  0  0  0  0  0  0  0
    2.4485   -2.3075    0.1691 H   0  0  0  0  0  0  0  0  0  0  0  0
   -0.0660   -6.5248    0.7183 H   0  0  0  0  0  0  0  0  0  0  0  0
    1.6080   -0.0627   -1.2556 H   0  0  0  0  0  0  0  0  0  0  0  0
   -1.0777   -0.5415   -2.3406 H   0  0  0  0  0  0  0  0  0  0  0  0
   -0.1790    0.9922   -2.4305 H   0  0  0  0  0  0  0  0  0  0  0  0
   -1.6113   -1.5929   -4.7688 H   0  0  0  0  0  0  0  0  0  0  0  0
   -1.9611    1.1884   -7.9940 H   0  0  0  0  0  0  0  0  0  0  0  0
    1.2657    1.5223   -5.2126 H   0  0  0  0  0  0  0  0  0  0  0  0
   -0.1782    3.4016   -7.0424 H   0  0  0  0  0  0  0  0  0  0  0  0
   -3.8550   -0.5637   -6.4684 H   0  0  0  0  0  0  0  0  0  0  0  0
   -0.2280   -2.4207   -3.6540 H   0  0  0  0  0  0  0  0  0  0  0  0
    0.7761   -1.4825   -1.1724 H   0  0  0  0  0  0  0  0  0  0  0  0
  1  2  1  0  0  0  0
  1 25  1  0  0  0  0
  1 26  1  0  0  0  0
  1 27  1  0  0  0  0
  2  3  1  1  0  0  0
  2  4  1  0  0  0  0
  2 12  1  0  0  0  0
  4  5  1  0  0  0  0
  4 28  1  0  0  0  0
  4 29  1  0  0  0  0
  5 10  2  0  0  0  0
  5  6  1  0  0  0  0
  6  7  2  0  0  0  0
  6 30  1  0  0  0  0
  7  8  1  0  0  0  0
  7 31  1  0  0  0  0
  8  9  2  0  0  0  0
  8 11  1  0  0  0  0
  9 10  1  0  0  0  0
  9 32  1  0  0  0  0
 10 33  1  0  0  0  0
 11 34  1  0  0  0  0
 12 13  1  0  0  0  0
 12 35  1  0  0  0  0
 12 44  1  0  0  0  0
 13 14  1  0  0  0  0
 13 36  1  0  0  0  0
 13 37  1  0  0  0  0
 14 15  1  6  0  0  0
 14 16  1  0  0  0  0
 14 24  1  0  0  0  0
 16 21  2  0  0  0  0
 16 17  1  0  0  0  0
 17 18  2  0  0  0  0
 17 38  1  0  0  0  0
 18 19  1  0  0  0  0
 18 23  1  0  0  0  0
 19 20  2  0  0  0  0
 19 39  1  0  0  0  0
 20 21  1  0  0  0  0
 20 22  1  0  0  0  0
 21 40  1  0  0  0  0
 22 41  1  0  0  0  0
 23 42  1  0  0  0  0
 24 43  1  0  0  0  0
M  CHG  1  12   1
M  END
$$$$
