ZINC01530580
 OpenBabel08292219463D

 57 60  0  0  1  0  0  0  0  0999 V2000
   -0.0173    1.4248    0.0099 C   0  0  0  0  0  0  0  0  0  0  0  0
    0.0021   -0.0041    0.0020 O   0  0  0  0  0  0  0  0  0  0  0  0
    0.6062   -0.6075   -1.0564 C   0  0  0  0  0  0  0  0  0  0  0  0
    1.1729    0.1590   -2.0621 C   0  0  0  0  0  0  0  0  0  0  0  0
    1.7870   -0.4560   -3.1371 C   0  0  0  0  0  0  0  0  0  0  0  0
    1.8372   -1.8356   -3.2121 C   0  0  0  0  0  0  0  0  0  0  0  0
    1.2734   -2.6062   -2.2124 C   0  0  0  0  0  0  0  0  0  0  0  0
    0.6617   -1.9961   -1.1290 C   0  0  0  0  0  0  0  0  0  0  0  0
    0.1119   -2.7526   -0.1417 O   0  0  0  0  0  0  0  0  0  0  0  0
    0.2064   -4.1715   -0.2827 C   0  0  0  0  0  0  0  0  0  0  0  0
   -0.4630   -4.8487    0.9148 C   0  0  0  0  0  0  0  0  0  0  0  0
   -1.9017   -4.5521    0.9040 N   0  3  0  0  0  0  0  0  0  0  0  0
   -2.5444   -5.2023    2.0538 C   0  0  0  0  0  0  0  0  0  0  0  0
   -4.0428   -4.8933    2.0425 C   0  0  2  0  0  0  0  0  0  0  0  0
   -4.1910   -3.8138    2.0149 H   0  0  0  0  0  0  0  0  0  0  0  0
   -4.6910   -5.4650    3.3051 C   0  0  0  0  0  0  0  0  0  0  0  0
   -6.0655   -5.0771    3.3523 O   0  0  0  0  0  0  0  0  0  0  0  0
   -6.7910   -5.5055    4.4180 C   0  0  0  0  0  0  0  0  0  0  0  0
   -6.1946   -6.2769    5.4003 C   0  0  0  0  0  0  0  0  0  0  0  0
   -6.9338   -6.7140    6.4870 C   0  0  0  0  0  0  0  0  0  0  0  0
   -8.2684   -6.3887    6.6050 C   0  0  0  0  0  0  0  0  0  0  0  0
   -8.8884   -5.6144    5.6285 C   0  0  0  0  0  0  0  0  0  0  0  0
   -8.1411   -5.1648    4.5306 C   0  0  0  0  0  0  0  0  0  0  0  0
   -9.0617   -4.3762    3.6919 C   0  0  0  0  0  0  0  0  0  0  0  0
   -8.9130   -3.6898    2.4889 C   0  0  0  0  0  0  0  0  0  0  0  0
   -9.9908   -3.0295    1.9395 C   0  0  0  0  0  0  0  0  0  0  0  0
  -11.2205   -3.0461    2.5799 C   0  0  0  0  0  0  0  0  0  0  0  0
  -11.3814   -3.7209    3.7708 C   0  0  0  0  0  0  0  0  0  0  0  0
  -10.3053   -4.3943    4.3408 C   0  0  0  0  0  0  0  0  0  0  0  0
  -10.1844   -5.1495    5.4941 N   0  0  0  0  0  0  0  0  0  0  0  0
  -10.9022   -5.3180    6.1244 H   0  0  0  0  0  0  0  0  0  0  0  0
   -4.6428   -5.4861    0.8889 O   0  0  0  0  0  0  0  0  0  0  0  0
    1.0053    1.8021    0.0021 H   0  0  0  0  0  0  0  0  0  0  0  0
   -0.5445    1.7859   -0.8732 H   0  0  0  0  0  0  0  0  0  0  0  0
   -0.5275    1.7763    0.9067 H   0  0  0  0  0  0  0  0  0  0  0  0
    1.1344    1.2368   -2.0063 H   0  0  0  0  0  0  0  0  0  0  0  0
    2.2283    0.1425   -3.9203 H   0  0  0  0  0  0  0  0  0  0  0  0
    2.3175   -2.3124   -4.0537 H   0  0  0  0  0  0  0  0  0  0  0  0
    1.3136   -3.6837   -2.2735 H   0  0  0  0  0  0  0  0  0  0  0  0
   -0.2940   -4.4795   -1.2008 H   0  0  0  0  0  0  0  0  0  0  0  0
    1.2558   -4.4633   -0.3254 H   0  0  0  0  0  0  0  0  0  0  0  0
   -0.3138   -5.9267    0.8528 H   0  0  0  0  0  0  0  0  0  0  0  0
   -0.0216   -4.4734    1.8380 H   0  0  0  0  0  0  0  0  0  0  0  0
   -2.0398   -3.5542    0.9614 H   0  0  0  0  0  0  0  0  0  0  0  0
   -2.3952   -6.2803    1.9918 H   0  0  0  0  0  0  0  0  0  0  0  0
   -2.1030   -4.8270    2.9770 H   0  0  0  0  0  0  0  0  0  0  0  0
   -4.6207   -6.5526    3.2891 H   0  0  0  0  0  0  0  0  0  0  0  0
   -4.1745   -5.0804    4.1846 H   0  0  0  0  0  0  0  0  0  0  0  0
   -5.1500   -6.5390    5.3190 H   0  0  0  0  0  0  0  0  0  0  0  0
   -6.4604   -7.3155    7.2489 H   0  0  0  0  0  0  0  0  0  0  0  0
   -8.8343   -6.7358    7.4570 H   0  0  0  0  0  0  0  0  0  0  0  0
   -7.9561   -3.6747    1.9885 H   0  0  0  0  0  0  0  0  0  0  0  0
   -9.8771   -2.4969    1.0069 H   0  0  0  0  0  0  0  0  0  0  0  0
  -12.0593   -2.5255    2.1419 H   0  0  0  0  0  0  0  0  0  0  0  0
  -12.3433   -3.7273    4.2617 H   0  0  0  0  0  0  0  0  0  0  0  0
   -4.5494   -6.4477    0.8473 H   0  0  0  0  0  0  0  0  0  0  0  0
   -2.3103   -4.8995    0.0494 H   0  0  0  0  0  0  0  0  0  0  0  0
  1  2  1  0  0  0  0
  1 33  1  0  0  0  0
  1 34  1  0  0  0  0
  1 35  1  0  0  0  0
  2  3  1  0  0  0  0
  3  8  2  0  0  0  0
  3  4  1  0  0  0  0
  4  5  2  0  0  0  0
  4 36  1  0  0  0  0
  5  6  1  0  0  0  0
  5 37  1  0  0  0  0
  6  7  2  0  0  0  0
  6 38  1  0  0  0  0
  7  8  1  0  0  0  0
  7 39  1  0  0  0  0
  8  9  1  0  0  0  0
  9 10  1  0  0  0  0
 10 11  1  0  0  0  0
 10 40  1  0  0  0  0
 10 41  1  0  0  0  0
 11 12  1  0  0  0  0
 11 42  1  0  0  0  0
 11 43  1  0  0  0  0
 12 13  1  0  0  0  0
 12 44  1  0  0  0  0
 12 57  1  0  0  0  0
 13 14  1  0  0  0  0
 13 45  1  0  0  0  0
 13 46  1  0  0  0  0
 14 15  1  6  0  0  0
 14 16  1  0  0  0  0
 14 32  1  0  0  0  0
 16 17  1  0  0  0  0
 16 47  1  0  0  0  0
 16 48  1  0  0  0  0
 17 18  1  0  0  0  0
 18 23  2  0  0  0  0
 18 19  1  0  0  0  0
 19 20  2  0  0  0  0
 19 49  1  0  0  0  0
 20 21  1  0  0  0  0
 20 50  1  0  0  0  0
 21 22  2  0  0  0  0
 21 51  1  0  0  0  0
 22 30  1  0  0  0  0
 22 23  1  0  0  0  0
 23 24  1  0  0  0  0
 24 29  2  0  0  0  0
 24 25  1  0  0  0  0
 25 26  2  0  0  0  0
 25 52  1  0  0  0  0
 26 27  1  0  0  0  0
 26 53  1  0  0  0  0
 27 28  2  0  0  0  0
 27 54  1  0  0  0  0
 28 29  1  0  0  0  0
 28 55  1  0  0  0  0
 29 30  1  0  0  0  0
 30 31  1  0  0  0  0
 32 56  1  0  0  0  0
M  CHG  1  12   1
M  END
$$$$
