ZINC04097186
 OpenBabel08292219463D

 81 86  0  0  1  0  0  0  0  0999 V2000
    8.0842   -0.1347   -0.3686 C   0  0  0  0  0  0  0  0  0  0  0  0
    7.2848   -0.2925   -1.5425 O   0  0  0  0  0  0  0  0  0  0  0  0
    5.9564   -0.0257   -1.4254 C   0  0  0  0  0  0  0  0  0  0  0  0
    5.4378    0.3779   -0.2095 C   0  0  0  0  0  0  0  0  0  0  0  0
    4.0726    0.6520   -0.0898 C   0  0  0  0  0  0  0  0  0  0  0  0
    3.2344    0.5114   -1.1993 C   0  0  0  0  0  0  0  0  0  0  0  0
    3.7592    0.1126   -2.4141 C   0  0  0  0  0  0  0  0  0  0  0  0
    5.1198   -0.1598   -2.5304 C   0  0  0  0  0  0  0  0  0  0  0  0
    5.6322   -0.5567   -3.7247 O   0  0  0  0  0  0  0  0  0  0  0  0
    5.6606   -1.9618   -3.9837 C   0  0  0  0  0  0  0  0  0  0  0  0
    2.9450   -0.0194   -3.4954 O   0  0  0  0  0  0  0  0  0  0  0  0
    1.5822    0.3790   -3.3339 C   0  0  0  0  0  0  0  0  0  0  0  0
    3.5165    1.0828    1.2064 C   0  0  0  0  0  0  0  0  0  0  0  0
    4.2411    1.1776    2.1771 O   0  0  0  0  0  0  0  0  0  0  0  0
    2.2047    1.3715    1.3142 O   0  0  0  0  0  0  0  0  0  0  0  0
    1.7042    1.6785    2.6422 C   0  0  2  0  0  0  0  0  0  0  0  0
    2.2541    1.0967    3.3820 H   0  0  0  0  0  0  0  0  0  0  0  0
    0.2169    1.3288    2.7207 C   0  0  0  0  0  0  0  0  0  0  0  0
   -0.5573    2.1452    1.6894 C   0  0  2  0  0  0  0  0  0  0  0  0
   -1.6160    1.8984    1.7685 H   0  0  0  0  0  0  0  0  0  0  0  0
   -0.0627    1.8093    0.2806 C   0  0  0  0  0  0  0  0  0  0  0  0
   -0.5247    2.1934   -2.0750 C   0  0  0  0  0  0  0  0  0  0  0  0
   -1.6109    2.7418   -3.0113 C   0  0  0  0  0  0  0  0  0  0  0  0
   -1.8114    4.2022   -2.6939 C   0  0  0  0  0  0  0  0  0  0  0  0
   -2.4808    5.2233   -3.4687 C   0  0  0  0  0  0  0  0  0  0  0  0
   -3.1360    5.2025   -4.7039 C   0  0  0  0  0  0  0  0  0  0  0  0
   -3.6661    6.3892   -5.1461 C   0  0  0  0  0  0  0  0  0  0  0  0
   -3.5629    7.5599   -4.4126 C   0  0  0  0  0  0  0  0  0  0  0  0
   -2.9215    7.6096   -3.1872 C   0  0  0  0  0  0  0  0  0  0  0  0
   -2.3743    6.4195   -2.7122 C   0  0  0  0  0  0  0  0  0  0  0  0
   -1.6906    6.1188   -1.5687 N   0  0  0  0  0  0  0  0  0  0  0  0
   -1.4736    6.7512   -0.8659 H   0  0  0  0  0  0  0  0  0  0  0  0
   -1.3575    4.7919   -1.5635 C   0  0  0  0  0  0  0  0  0  0  0  0
   -0.6021    4.0401   -0.4954 C   0  0  1  0  0  0  0  0  0  0  0  0
    0.4626    4.2628   -0.5658 H   0  0  0  0  0  0  0  0  0  0  0  0
   -1.1198    4.4415    0.8871 C   0  0  0  0  0  0  0  0  0  0  0  0
   -0.3660    3.6400    1.9546 C   0  0  2  0  0  0  0  0  0  0  0  0
   -0.7519    3.8936    2.9419 H   0  0  0  0  0  0  0  0  0  0  0  0
    1.1230    3.9850    1.8819 C   0  0  1  0  0  0  0  0  0  0  0  0
    1.2593    5.0482    2.0794 H   0  0  0  0  0  0  0  0  0  0  0  0
    1.8898    3.1708    2.9254 C   0  0  1  0  0  0  0  0  0  0  0  0
    2.9494    3.4215    2.8754 H   0  0  0  0  0  0  0  0  0  0  0  0
    1.3891    3.4744    4.2289 O   0  0  0  0  0  0  0  0  0  0  0  0
    2.3633    3.3567    5.2677 C   0  0  0  0  0  0  0  0  0  0  0  0
    1.6473    3.6586    0.5073 C   0  0  0  0  0  0  0  0  0  0  0  0
    2.0922    2.5594    0.2756 O   0  0  0  0  0  0  0  0  0  0  0  0
    1.6199    4.5891   -0.4598 O   0  0  0  0  0  0  0  0  0  0  0  0
    2.2650    4.2529   -1.7165 C   0  0  0  0  0  0  0  0  0  0  0  0
    9.1211   -0.3787   -0.5997 H   0  0  0  0  0  0  0  0  0  0  0  0
    8.0222    0.8971   -0.0228 H   0  0  0  0  0  0  0  0  0  0  0  0
    7.7192   -0.8021    0.4120 H   0  0  0  0  0  0  0  0  0  0  0  0
    6.0870    0.4811    0.6475 H   0  0  0  0  0  0  0  0  0  0  0  0
    2.1783    0.7182   -1.1084 H   0  0  0  0  0  0  0  0  0  0  0  0
    6.2658   -2.4588   -3.2255 H   0  0  0  0  0  0  0  0  0  0  0  0
    4.6452   -2.3571   -3.9547 H   0  0  0  0  0  0  0  0  0  0  0  0
    6.0924   -2.1411   -4.9683 H   0  0  0  0  0  0  0  0  0  0  0  0
    1.1509   -0.1401   -2.4779 H   0  0  0  0  0  0  0  0  0  0  0  0
    1.5356    1.4552   -3.1674 H   0  0  0  0  0  0  0  0  0  0  0  0
    1.0206    0.1258   -4.2331 H   0  0  0  0  0  0  0  0  0  0  0  0
    0.0829    0.2664    2.5175 H   0  0  0  0  0  0  0  0  0  0  0  0
   -0.1571    1.5572    3.7187 H   0  0  0  0  0  0  0  0  0  0  0  0
   -0.2132    0.7476    0.0850 H   0  0  0  0  0  0  0  0  0  0  0  0
    0.9978    2.0479    0.2001 H   0  0  0  0  0  0  0  0  0  0  0  0
    0.4457    2.5910   -2.3720 H   0  0  0  0  0  0  0  0  0  0  0  0
   -0.5066    1.1054   -2.1369 H   0  0  0  0  0  0  0  0  0  0  0  0
   -2.5425    2.1991   -2.8510 H   0  0  0  0  0  0  0  0  0  0  0  0
   -1.2943    2.6307   -4.0484 H   0  0  0  0  0  0  0  0  0  0  0  0
   -3.2207    4.2950   -5.2834 H   0  0  0  0  0  0  0  0  0  0  0  0
   -4.1795    6.4108   -6.0960 H   0  0  0  0  0  0  0  0  0  0  0  0
   -3.9985    8.4645   -4.8104 H   0  0  0  0  0  0  0  0  0  0  0  0
   -2.8486    8.5287   -2.6249 H   0  0  0  0  0  0  0  0  0  0  0  0
   -0.9514    5.5069    1.0444 H   0  0  0  0  0  0  0  0  0  0  0  0
   -2.1864    4.2272    0.9535 H   0  0  0  0  0  0  0  0  0  0  0  0
    3.1878    4.0424    5.0721 H   0  0  0  0  0  0  0  0  0  0  0  0
    1.9050    3.6035    6.2254 H   0  0  0  0  0  0  0  0  0  0  0  0
    2.7404    2.3344    5.2981 H   0  0  0  0  0  0  0  0  0  0  0  0
    1.7205    3.4409   -2.1985 H   0  0  0  0  0  0  0  0  0  0  0  0
    2.2674    5.1262   -2.3687 H   0  0  0  0  0  0  0  0  0  0  0  0
    3.2912    3.9392   -1.5255 H   0  0  0  0  0  0  0  0  0  0  0  0
   -0.8583    2.5955   -0.6869 N   0  3  2  0  0  0  0  0  0  0  0  0
   -1.8549    2.4119   -0.5215 H   0  0  0  0  0  0  0  0  0  0  0  0
  1  2  1  0  0  0  0
  1 49  1  0  0  0  0
  1 50  1  0  0  0  0
  1 51  1  0  0  0  0
  2  3  1  0  0  0  0
  3  8  2  0  0  0  0
  3  4  1  0  0  0  0
  4  5  2  0  0  0  0
  4 52  1  0  0  0  0
  5  6  1  0  0  0  0
  5 13  1  0  0  0  0
  6  7  2  0  0  0  0
  6 53  1  0  0  0  0
  7  8  1  0  0  0  0
  7 11  1  0  0  0  0
  8  9  1  0  0  0  0
  9 10  1  0  0  0  0
 10 54  1  0  0  0  0
 10 55  1  0  0  0  0
 10 56  1  0  0  0  0
 11 12  1  0  0  0  0
 12 57  1  0  0  0  0
 12 58  1  0  0  0  0
 12 59  1  0  0  0  0
 13 14  2  0  0  0  0
 13 15  1  0  0  0  0
 15 16  1  0  0  0  0
 16 17  1  1  0  0  0
 16 41  1  0  0  0  0
 16 18  1  0  0  0  0
 18 19  1  0  0  0  0
 18 60  1  0  0  0  0
 18 61  1  0  0  0  0
 19 20  1  1  0  0  0
 19 37  1  0  0  0  0
 19 21  1  0  0  0  0
 21 62  1  0  0  0  0
 21 63  1  0  0  0  0
 21 80  1  0  0  0  0
 22 23  1  0  0  0  0
 22 64  1  0  0  0  0
 22 65  1  0  0  0  0
 22 80  1  0  0  0  0
 23 24  1  0  0  0  0
 23 66  1  0  0  0  0
 23 67  1  0  0  0  0
 24 33  2  0  0  0  0
 24 25  1  0  0  0  0
 25 30  2  0  0  0  0
 25 26  1  0  0  0  0
 26 27  2  0  0  0  0
 26 68  1  0  0  0  0
 27 28  1  0  0  0  0
 27 69  1  0  0  0  0
 28 29  2  0  0  0  0
 28 70  1  0  0  0  0
 29 30  1  0  0  0  0
 29 71  1  0  0  0  0
 30 31  1  0  0  0  0
 31 32  1  0  0  0  0
 31 33  1  0  0  0  0
 33 34  1  0  0  0  0
 34 35  1  6  0  0  0
 34 36  1  0  0  0  0
 34 80  1  0  0  0  0
 36 37  1  0  0  0  0
 36 72  1  0  0  0  0
 36 73  1  0  0  0  0
 37 38  1  1  0  0  0
 37 39  1  0  0  0  0
 39 40  1  1  0  0  0
 39 41  1  0  0  0  0
 39 45  1  0  0  0  0
 41 42  1  6  0  0  0
 41 43  1  0  0  0  0
 43 44  1  0  0  0  0
 44 74  1  0  0  0  0
 44 75  1  0  0  0  0
 44 76  1  0  0  0  0
 45 46  2  0  0  0  0
 45 47  1  0  0  0  0
 47 48  1  0  0  0  0
 48 77  1  0  0  0  0
 48 78  1  0  0  0  0
 48 79  1  0  0  0  0
 80 81  1  1  0  0  0
M  CHG  1  80   1
M  END
$$$$
