ZINC00113415
 OpenBabel08292219463D

 42 42  0  0  1  0  0  0  0  0999 V2000
   -0.0187    1.5258    0.0104 C   0  0  0  0  0  0  0  0  0  0  0  0
    0.0021   -0.0041    0.0020 C   0  0  0  0  0  0  0  0  0  0  0  0
    0.7421   -0.5109    1.2415 C   0  0  0  0  0  0  0  0  0  0  0  0
   -1.3761   -0.5125    0.0124 N   0  3  0  0  0  0  0  0  0  0  0  0
   -2.0500   -0.1262   -1.2343 C   0  0  0  0  0  0  0  0  0  0  0  0
   -3.4854   -0.6557   -1.2235 C   0  0  1  0  0  0  0  0  0  0  0  0
   -4.0222   -0.2330   -0.3742 H   0  0  0  0  0  0  0  0  0  0  0  0
   -4.1873   -0.2533   -2.5220 C   0  0  0  0  0  0  0  0  0  0  0  0
   -5.5600   -0.6460   -2.4630 O   0  0  0  0  0  0  0  0  0  0  0  0
   -6.3307   -0.3601   -3.5452 C   0  0  0  0  0  0  0  0  0  0  0  0
   -5.7757    0.2800   -4.6438 C   0  0  0  0  0  0  0  0  0  0  0  0
   -6.5610    0.5691   -5.7429 C   0  0  0  0  0  0  0  0  0  0  0  0
   -7.8993    0.2215   -5.7485 C   0  0  0  0  0  0  0  0  0  0  0  0
   -8.4549   -0.4161   -4.6546 C   0  0  0  0  0  0  0  0  0  0  0  0
   -7.6723   -0.7130   -3.5556 C   0  0  0  0  0  0  0  0  0  0  0  0
   -8.7538    0.5385   -6.9486 C   0  0  0  0  0  0  0  0  0  0  0  0
   -8.7090   -0.6159   -7.9163 C   0  0  0  0  0  0  0  0  0  0  0  0
   -8.0482   -1.5992   -7.6569 O   0  0  0  0  0  0  0  0  0  0  0  0
   -9.4032   -0.5556   -9.0699 N   0  0  0  0  0  0  0  0  0  0  0  0
   -3.4667   -2.0804   -1.1139 O   0  0  0  0  0  0  0  0  0  0  0  0
    1.0039    1.9031    0.0027 H   0  0  0  0  0  0  0  0  0  0  0  0
   -0.5459    1.8868   -0.8726 H   0  0  0  0  0  0  0  0  0  0  0  0
   -0.5289    1.8773    0.9072 H   0  0  0  0  0  0  0  0  0  0  0  0
    0.5123   -0.3556   -0.8948 H   0  0  0  0  0  0  0  0  0  0  0  0
    0.2319   -0.1594    2.1383 H   0  0  0  0  0  0  0  0  0  0  0  0
    0.7568   -1.6008    1.2356 H   0  0  0  0  0  0  0  0  0  0  0  0
    1.7647   -0.1336    1.2338 H   0  0  0  0  0  0  0  0  0  0  0  0
   -1.3629   -1.5185    0.0898 H   0  0  0  0  0  0  0  0  0  0  0  0
   -2.0643    0.9605   -1.3179 H   0  0  0  0  0  0  0  0  0  0  0  0
   -1.5132   -0.5489   -2.0836 H   0  0  0  0  0  0  0  0  0  0  0  0
   -4.1237    0.8273   -2.6496 H   0  0  0  0  0  0  0  0  0  0  0  0
   -3.7039   -0.7477   -3.3646 H   0  0  0  0  0  0  0  0  0  0  0  0
   -4.7306    0.5524   -4.6396 H   0  0  0  0  0  0  0  0  0  0  0  0
   -6.1295    1.0674   -6.5984 H   0  0  0  0  0  0  0  0  0  0  0  0
   -9.5005   -0.6863   -4.6613 H   0  0  0  0  0  0  0  0  0  0  0  0
   -8.1057   -1.2150   -2.7032 H   0  0  0  0  0  0  0  0  0  0  0  0
   -9.7825    0.7046   -6.6285 H   0  0  0  0  0  0  0  0  0  0  0  0
   -8.3757    1.4367   -7.4368 H   0  0  0  0  0  0  0  0  0  0  0  0
   -9.9317    0.2309   -9.2773 H   0  0  0  0  0  0  0  0  0  0  0  0
   -9.3743   -1.2986   -9.6928 H   0  0  0  0  0  0  0  0  0  0  0  0
   -3.0042   -2.5245   -1.8377 H   0  0  0  0  0  0  0  0  0  0  0  0
   -1.8730   -0.1212    0.7986 H   0  0  0  0  0  0  0  0  0  0  0  0
  1  2  1  0  0  0  0
  1 21  1  0  0  0  0
  1 22  1  0  0  0  0
  1 23  1  0  0  0  0
  2  3  1  0  0  0  0
  2  4  1  0  0  0  0
  2 24  1  0  0  0  0
  3 25  1  0  0  0  0
  3 26  1  0  0  0  0
  3 27  1  0  0  0  0
  4  5  1  0  0  0  0
  4 28  1  0  0  0  0
  4 42  1  0  0  0  0
  5  6  1  0  0  0  0
  5 29  1  0  0  0  0
  5 30  1  0  0  0  0
  6  7  1  1  0  0  0
  6  8  1  0  0  0  0
  6 20  1  0  0  0  0
  8  9  1  0  0  0  0
  8 31  1  0  0  0  0
  8 32  1  0  0  0  0
  9 10  1  0  0  0  0
 10 15  2  0  0  0  0
 10 11  1  0  0  0  0
 11 12  2  0  0  0  0
 11 33  1  0  0  0  0
 12 13  1  0  0  0  0
 12 34  1  0  0  0  0
 13 14  2  0  0  0  0
 13 16  1  0  0  0  0
 14 15  1  0  0  0  0
 14 35  1  0  0  0  0
 15 36  1  0  0  0  0
 16 17  1  0  0  0  0
 16 37  1  0  0  0  0
 16 38  1  0  0  0  0
 17 18  2  0  0  0  0
 17 19  1  0  0  0  0
 19 39  1  0  0  0  0
 19 40  1  0  0  0  0
 20 41  1  0  0  0  0
M  CHG  1   4   1
M  END
$$$$
