ZINC03812944
 OpenBabel08292219463D

 30 30  0  0  0  0  0  0  0  0999 V2000
    0.1144    1.1923    1.3091 C   0  0  0  0  0  0  0  0  0  0  0  0
    0.0606   -0.1508    0.5784 C   0  0  0  0  0  0  0  0  0  0  0  0
    0.9850   -1.1494    1.2779 C   0  0  0  0  0  0  0  0  0  0  0  0
   -1.3517   -0.6761    0.5960 C   0  0  0  0  0  0  0  0  0  0  0  0
   -2.2290   -0.0390    1.1396 O   0  0  0  0  0  0  0  0  0  0  0  0
   -1.6400   -1.8540    0.0078 N   0  0  0  0  0  0  0  0  0  0  0  0
   -2.9291   -2.3888    0.1075 C   0  0  0  0  0  0  0  0  0  0  0  0
   -4.0336   -1.5467    0.1110 C   0  0  0  0  0  0  0  0  0  0  0  0
   -5.3046   -2.0776    0.2096 C   0  0  0  0  0  0  0  0  0  0  0  0
   -5.4783   -3.4464    0.3049 C   0  0  0  0  0  0  0  0  0  0  0  0
   -4.3809   -4.2874    0.3021 C   0  0  0  0  0  0  0  0  0  0  0  0
   -3.1072   -3.7629    0.1975 C   0  0  0  0  0  0  0  0  0  0  0  0
   -4.5747   -5.7782    0.4071 C   0  0  0  0  0  0  0  0  0  0  0  0
   -3.3284   -6.4133    0.3836 F   0  0  0  0  0  0  0  0  0  0  0  0
   -5.2294   -6.0800    1.6060 F   0  0  0  0  0  0  0  0  0  0  0  0
   -5.3463   -6.2251   -0.6709 F   0  0  0  0  0  0  0  0  0  0  0  0
   -6.8420   -4.0122    0.4104 N   0  0  0  0  0  4  0  0  0  0  0  0
   -7.8025   -3.2779    0.4134 O   0  0  0  0  0  0  0  0  0  0  0  0
   -6.9954   -5.2085    0.4937 O   0  5  0  0  0  0  0  0  0  0  0  0
    1.1359    1.5723    1.2964 H   0  0  0  0  0  0  0  0  0  0  0  0
   -0.5441    1.9037    0.8108 H   0  0  0  0  0  0  0  0  0  0  0  0
   -0.2104    1.0578    2.3409 H   0  0  0  0  0  0  0  0  0  0  0  0
    0.3854   -0.0163   -0.4534 H   0  0  0  0  0  0  0  0  0  0  0  0
    0.9467   -2.1062    0.7573 H   0  0  0  0  0  0  0  0  0  0  0  0
    2.0065   -0.7694    1.2651 H   0  0  0  0  0  0  0  0  0  0  0  0
    0.6603   -1.2839    2.3097 H   0  0  0  0  0  0  0  0  0  0  0  0
   -0.9538   -2.3309   -0.4848 H   0  0  0  0  0  0  0  0  0  0  0  0
   -3.8986   -0.4777    0.0370 H   0  0  0  0  0  0  0  0  0  0  0  0
   -6.1638   -1.4233    0.2128 H   0  0  0  0  0  0  0  0  0  0  0  0
   -2.2507   -4.4207    0.1902 H   0  0  0  0  0  0  0  0  0  0  0  0
  1  2  1  0  0  0  0
  1 20  1  0  0  0  0
  1 21  1  0  0  0  0
  1 22  1  0  0  0  0
  2  3  1  0  0  0  0
  2  4  1  0  0  0  0
  2 23  1  0  0  0  0
  3 24  1  0  0  0  0
  3 25  1  0  0  0  0
  3 26  1  0  0  0  0
  4  5  2  0  0  0  0
  4  6  1  0  0  0  0
  6  7  1  0  0  0  0
  6 27  1  0  0  0  0
  7 12  2  0  0  0  0
  7  8  1  0  0  0  0
  8  9  2  0  0  0  0
  8 28  1  0  0  0  0
  9 10  1  0  0  0  0
  9 29  1  0  0  0  0
 10 11  2  0  0  0  0
 10 17  1  0  0  0  0
 11 12  1  0  0  0  0
 11 13  1  0  0  0  0
 12 30  1  0  0  0  0
 13 14  1  0  0  0  0
 13 15  1  0  0  0  0
 13 16  1  0  0  0  0
 17 18  2  0  0  0  0
 17 19  1  0  0  0  0
M  CHG  1  19  -1
M  END
$$$$
