ZINC03873364
 OpenBabel08292219463D

 56 60  0  0  1  0  0  0  0  0999 V2000
   -0.0186    1.5239    0.0104 C   0  0  0  0  0  0  0  0  0  0  0  0
    0.0021   -0.0041    0.0020 C   0  0  2  0  0  0  0  0  0  0  0  0
   -1.3895   -0.5778    0.0110 C   0  0  0  0  0  0  0  0  0  0  0  0
   -1.9944   -0.5718    1.4197 C   0  0  0  0  0  0  0  0  0  0  0  0
   -1.1664    0.2067    2.4240 C   0  0  2  0  0  0  0  0  0  0  0  0
   -1.1600    1.2678    2.1469 H   0  0  0  0  0  0  0  0  0  0  0  0
    0.2707   -0.3030    2.5066 C   0  0  1  0  0  0  0  0  0  0  0  0
    0.2608   -1.2501    3.0814 H   0  0  0  0  0  0  0  0  0  0  0  0
    0.8353   -0.6034    1.1535 C   0  0  2  0  0  0  0  0  0  0  0  0
    0.8610   -1.7081    1.0270 H   0  0  0  0  0  0  0  0  0  0  0  0
    2.2414   -0.0760    0.8360 C   0  0  0  0  0  0  0  0  0  0  0  0
    2.3197   -0.1981   -0.7116 C   0  0  0  0  0  0  0  0  0  0  0  0
    0.8688   -0.4230   -1.2065 C   0  0  2  0  0  0  0  0  0  0  0  0
    0.5617    0.4743   -2.4018 C   0  0  0  0  0  0  0  0  0  0  0  0
    0.6494   -1.7934   -1.5220 O   0  0  0  0  0  0  0  0  0  0  0  0
    1.1017    0.7027    3.3016 C   0  0  0  0  0  0  0  0  0  0  0  0
    0.4732    0.8707    4.6869 C   0  0  0  0  0  0  0  0  0  0  0  0
   -0.7081   -0.0827    4.8706 C   0  0  2  0  0  0  0  0  0  0  0  0
   -0.3495   -1.1159    4.7696 H   0  0  0  0  0  0  0  0  0  0  0  0
   -1.7923    0.1691    3.8251 C   0  0  2  0  0  0  0  0  0  0  0  0
   -2.8251   -0.9676    3.8814 C   0  0  0  0  0  0  0  0  0  0  0  0
   -3.3296   -1.0547    5.3014 C   0  0  0  0  0  0  0  0  0  0  0  0
   -4.4865   -1.5700    5.7519 C   0  0  0  0  0  0  0  0  0  0  0  0
   -4.5025   -1.4230    7.0961 N   0  0  0  0  0  0  0  0  0  0  0  0
   -5.2167   -1.6998    7.6910 H   0  0  0  0  0  0  0  0  0  0  0  0
   -3.3069   -0.7957    7.4778 N   0  0  0  0  0  0  0  0  0  0  0  0
   -2.6056   -0.5698    6.4036 C   0  0  0  0  0  0  0  0  0  0  0  0
   -1.2594    0.0968    6.2920 C   0  0  0  0  0  0  0  0  0  0  0  0
   -2.4916    1.5071    4.0832 C   0  0  0  0  0  0  0  0  0  0  0  0
    0.9753    1.9021   -0.2288 H   0  0  0  0  0  0  0  0  0  0  0  0
   -0.7319    1.8817   -0.7321 H   0  0  0  0  0  0  0  0  0  0  0  0
   -0.3141    1.8778    0.9981 H   0  0  0  0  0  0  0  0  0  0  0  0
   -2.0335    0.0069   -0.6617 H   0  0  0  0  0  0  0  0  0  0  0  0
   -1.3725   -1.6086   -0.3686 H   0  0  0  0  0  0  0  0  0  0  0  0
   -3.0045   -0.1445    1.3706 H   0  0  0  0  0  0  0  0  0  0  0  0
   -2.0961   -1.6122    1.7583 H   0  0  0  0  0  0  0  0  0  0  0  0
    2.3672    0.9543    1.1547 H   0  0  0  0  0  0  0  0  0  0  0  0
    2.9986   -0.7111    1.3020 H   0  0  0  0  0  0  0  0  0  0  0  0
    2.7232    0.7193   -1.1386 H   0  0  0  0  0  0  0  0  0  0  0  0
    2.9439   -1.0471   -0.9873 H   0  0  0  0  0  0  0  0  0  0  0  0
    0.7810    1.5104   -2.1441 H   0  0  0  0  0  0  0  0  0  0  0  0
    1.1766    0.1728   -3.2498 H   0  0  0  0  0  0  0  0  0  0  0  0
   -0.4918    0.3805   -2.6653 H   0  0  0  0  0  0  0  0  0  0  0  0
    1.1678   -2.1119   -2.2735 H   0  0  0  0  0  0  0  0  0  0  0  0
    2.1205    0.3320    3.4100 H   0  0  0  0  0  0  0  0  0  0  0  0
    1.1112    1.6631    2.7899 H   0  0  0  0  0  0  0  0  0  0  0  0
    1.2309    0.6487    5.4432 H   0  0  0  0  0  0  0  0  0  0  0  0
    0.1472    1.9010    4.8116 H   0  0  0  0  0  0  0  0  0  0  0  0
   -3.6555   -0.7530    3.2131 H   0  0  0  0  0  0  0  0  0  0  0  0
   -2.3533   -1.9108    3.6100 H   0  0  0  0  0  0  0  0  0  0  0  0
   -5.2638   -2.0189    5.1510 H   0  0  0  0  0  0  0  0  0  0  0  0
   -0.5719   -0.3739    7.0036 H   0  0  0  0  0  0  0  0  0  0  0  0
   -1.3429    1.1531    6.5386 H   0  0  0  0  0  0  0  0  0  0  0  0
   -3.2678    1.6619    3.3338 H   0  0  0  0  0  0  0  0  0  0  0  0
   -2.9418    1.4962    5.0758 H   0  0  0  0  0  0  0  0  0  0  0  0
   -1.7627    2.3154    4.0237 H   0  0  0  0  0  0  0  0  0  0  0  0
  1 30  1  0  0  0  0
  1 31  1  0  0  0  0
  1 32  1  0  0  0  0
  2  1  1  1  0  0  0
  2  9  1  0  0  0  0
  2 13  1  0  0  0  0
  2  3  1  0  0  0  0
  3  4  1  0  0  0  0
  3 33  1  0  0  0  0
  3 34  1  0  0  0  0
  4  5  1  0  0  0  0
  4 35  1  0  0  0  0
  4 36  1  0  0  0  0
  5  6  1  6  0  0  0
  5 20  1  0  0  0  0
  5  7  1  0  0  0  0
  7  8  1  1  0  0  0
  7  9  1  0  0  0  0
  7 16  1  0  0  0  0
  9 10  1  6  0  0  0
  9 11  1  0  0  0  0
 11 12  1  0  0  0  0
 11 37  1  0  0  0  0
 11 38  1  0  0  0  0
 12 13  1  0  0  0  0
 12 39  1  0  0  0  0
 12 40  1  0  0  0  0
 13 14  1  0  0  0  0
 13 15  1  6  0  0  0
 14 41  1  0  0  0  0
 14 42  1  0  0  0  0
 14 43  1  0  0  0  0
 15 44  1  0  0  0  0
 16 17  1  0  0  0  0
 16 45  1  0  0  0  0
 16 46  1  0  0  0  0
 17 18  1  0  0  0  0
 17 47  1  0  0  0  0
 17 48  1  0  0  0  0
 18 19  1  6  0  0  0
 18 28  1  0  0  0  0
 18 20  1  0  0  0  0
 20 21  1  0  0  0  0
 20 29  1  1  0  0  0
 21 22  1  0  0  0  0
 21 49  1  0  0  0  0
 21 50  1  0  0  0  0
 22 27  1  0  0  0  0
 22 23  2  0  0  0  0
 23 24  1  0  0  0  0
 23 51  1  0  0  0  0
 24 25  1  0  0  0  0
 24 26  1  0  0  0  0
 26 27  2  0  0  0  0
 27 28  1  0  0  0  0
 28 52  1  0  0  0  0
 28 53  1  0  0  0  0
 29 54  1  0  0  0  0
 29 55  1  0  0  0  0
 29 56  1  0  0  0  0
M  END
$$$$
