ZINC00968336
 OpenBabel08292219463D

 56 57  0  0  1  0  0  0  0  0999 V2000
    2.4412    1.0226    2.8896 C   0  0  0  0  0  0  0  0  0  0  0  0
    1.9321   -0.3816    2.6890 C   0  0  0  0  0  0  0  0  0  0  0  0
    2.2025   -1.0521    1.5102 C   0  0  0  0  0  0  0  0  0  0  0  0
    1.7366   -2.3390    1.3238 C   0  0  0  0  0  0  0  0  0  0  0  0
    0.9971   -2.9590    2.3208 C   0  0  0  0  0  0  0  0  0  0  0  0
    0.7276   -2.2845    3.5025 C   0  0  0  0  0  0  0  0  0  0  0  0
    1.2003   -0.9992    3.6861 C   0  0  0  0  0  0  0  0  0  0  0  0
   -0.0753   -2.9549    4.5873 C   0  0  2  0  0  0  0  0  0  0  0  0
   -0.4621   -3.9050    4.2187 H   0  0  0  0  0  0  0  0  0  0  0  0
   -1.2423   -2.0512    4.9906 C   0  0  0  0  0  0  0  0  0  0  0  0
   -2.1281   -2.7827    6.0011 C   0  0  0  0  0  0  0  0  0  0  0  0
   -3.3197   -1.9717    6.2849 N   0  3  0  0  0  0  0  0  0  0  0  0
   -4.2493   -2.7431    7.1207 C   0  0  0  0  0  0  0  0  0  0  0  0
   -5.5502   -1.9570    7.2958 C   0  0  0  0  0  0  0  0  0  0  0  0
   -4.5500   -4.0830    6.4460 C   0  0  0  0  0  0  0  0  0  0  0  0
   -2.9220   -0.7489    6.9951 C   0  0  0  0  0  0  0  0  0  0  0  0
   -1.6530   -1.0198    7.8058 C   0  0  0  0  0  0  0  0  0  0  0  0
   -2.6515    0.3647    5.9814 C   0  0  0  0  0  0  0  0  0  0  0  0
    0.8058   -3.2019    5.7847 C   0  0  0  0  0  0  0  0  0  0  0  0
    1.2808   -2.1355    6.5250 C   0  0  0  0  0  0  0  0  0  0  0  0
    2.0891   -2.3620    7.6233 C   0  0  0  0  0  0  0  0  0  0  0  0
    2.4220   -3.6549    7.9815 C   0  0  0  0  0  0  0  0  0  0  0  0
    1.9462   -4.7214    7.2418 C   0  0  0  0  0  0  0  0  0  0  0  0
    1.1345   -4.4950    6.1460 C   0  0  0  0  0  0  0  0  0  0  0  0
    0.5372   -4.2249    2.1396 O   0  0  0  0  0  0  0  0  0  0  0  0
    3.4315    0.9886    3.3438 H   0  0  0  0  0  0  0  0  0  0  0  0
    2.5007    1.5286    1.9259 H   0  0  0  0  0  0  0  0  0  0  0  0
    1.7598    1.5662    3.5439 H   0  0  0  0  0  0  0  0  0  0  0  0
    2.7781   -0.5690    0.7346 H   0  0  0  0  0  0  0  0  0  0  0  0
    1.9474   -2.8620    0.4027 H   0  0  0  0  0  0  0  0  0  0  0  0
    0.9942   -0.4751    4.6076 H   0  0  0  0  0  0  0  0  0  0  0  0
   -0.8552   -1.1374    5.4412 H   0  0  0  0  0  0  0  0  0  0  0  0
   -1.8295   -1.8003    4.1073 H   0  0  0  0  0  0  0  0  0  0  0  0
   -2.4330   -3.7442    5.5880 H   0  0  0  0  0  0  0  0  0  0  0  0
   -1.5703   -2.9439    6.9235 H   0  0  0  0  0  0  0  0  0  0  0  0
   -3.7981   -2.9210    8.0969 H   0  0  0  0  0  0  0  0  0  0  0  0
   -6.0337   -1.8342    6.3266 H   0  0  0  0  0  0  0  0  0  0  0  0
   -6.2152   -2.4999    7.9674 H   0  0  0  0  0  0  0  0  0  0  0  0
   -5.3284   -0.9769    7.7180 H   0  0  0  0  0  0  0  0  0  0  0  0
   -5.0012   -3.9051    5.4699 H   0  0  0  0  0  0  0  0  0  0  0  0
   -3.6233   -4.6431    6.3213 H   0  0  0  0  0  0  0  0  0  0  0  0
   -5.2398   -4.6554    7.0662 H   0  0  0  0  0  0  0  0  0  0  0  0
   -3.7236   -0.4419    7.6669 H   0  0  0  0  0  0  0  0  0  0  0  0
   -0.8183   -1.1939    7.1268 H   0  0  0  0  0  0  0  0  0  0  0  0
   -1.4343   -0.1585    8.4370 H   0  0  0  0  0  0  0  0  0  0  0  0
   -1.8024   -1.9000    8.4312 H   0  0  0  0  0  0  0  0  0  0  0  0
   -3.5595    0.5673    5.4134 H   0  0  0  0  0  0  0  0  0  0  0  0
   -2.3429    1.2680    6.5076 H   0  0  0  0  0  0  0  0  0  0  0  0
   -1.8595    0.0520    5.3009 H   0  0  0  0  0  0  0  0  0  0  0  0
    1.0207   -1.1253    6.2451 H   0  0  0  0  0  0  0  0  0  0  0  0
    2.4608   -1.5288    8.2012 H   0  0  0  0  0  0  0  0  0  0  0  0
    3.0540   -3.8319    8.8392 H   0  0  0  0  0  0  0  0  0  0  0  0
    2.2066   -5.7315    7.5215 H   0  0  0  0  0  0  0  0  0  0  0  0
    0.7597   -5.3284    5.5702 H   0  0  0  0  0  0  0  0  0  0  0  0
    1.1480   -4.9120    2.4395 H   0  0  0  0  0  0  0  0  0  0  0  0
   -3.7728   -1.7248    5.4178 H   0  0  0  0  0  0  0  0  0  0  0  0
  1  2  1  0  0  0  0
  1 26  1  0  0  0  0
  1 27  1  0  0  0  0
  1 28  1  0  0  0  0
  2  7  2  0  0  0  0
  2  3  1  0  0  0  0
  3  4  2  0  0  0  0
  3 29  1  0  0  0  0
  4  5  1  0  0  0  0
  4 30  1  0  0  0  0
  5  6  2  0  0  0  0
  5 25  1  0  0  0  0
  6  7  1  0  0  0  0
  6  8  1  0  0  0  0
  7 31  1  0  0  0  0
  8  9  1  6  0  0  0
  8 10  1  0  0  0  0
  8 19  1  0  0  0  0
 10 11  1  0  0  0  0
 10 32  1  0  0  0  0
 10 33  1  0  0  0  0
 11 12  1  0  0  0  0
 11 34  1  0  0  0  0
 11 35  1  0  0  0  0
 12 13  1  0  0  0  0
 12 16  1  0  0  0  0
 12 56  1  0  0  0  0
 13 14  1  0  0  0  0
 13 15  1  0  0  0  0
 13 36  1  0  0  0  0
 14 37  1  0  0  0  0
 14 38  1  0  0  0  0
 14 39  1  0  0  0  0
 15 40  1  0  0  0  0
 15 41  1  0  0  0  0
 15 42  1  0  0  0  0
 16 17  1  0  0  0  0
 16 18  1  0  0  0  0
 16 43  1  0  0  0  0
 17 44  1  0  0  0  0
 17 45  1  0  0  0  0
 17 46  1  0  0  0  0
 18 47  1  0  0  0  0
 18 48  1  0  0  0  0
 18 49  1  0  0  0  0
 19 24  2  0  0  0  0
 19 20  1  0  0  0  0
 20 21  2  0  0  0  0
 20 50  1  0  0  0  0
 21 22  1  0  0  0  0
 21 51  1  0  0  0  0
 22 23  2  0  0  0  0
 22 52  1  0  0  0  0
 23 24  1  0  0  0  0
 23 53  1  0  0  0  0
 24 54  1  0  0  0  0
 25 55  1  0  0  0  0
M  CHG  1  12   1
M  END
$$$$
