ZINC19230190
 OpenBabel08292219463D

 17 17  0  0  0  0  0  0  0  0999 V2000
   -0.0179    1.4655    0.0101 C   0  0  0  0  0  0  0  0  0  0  0  0
    1.4189    1.9922   -0.0008 C   0  0  0  0  0  0  0  0  0  0  0  0
    2.1114    1.5014   -1.1995 N   0  3  0  0  0  0  0  0  0  0  0  0
    2.1448    0.0330   -1.1811 C   0  0  0  0  0  0  0  0  0  0  0  0
    0.7141   -0.5099   -1.1800 C   0  0  0  0  0  0  0  0  0  0  0  0
    0.0021   -0.0041    0.0020 N   0  0  0  0  0  0  0  0  0  0  0  0
   -0.5274    1.8174    0.9071 H   0  0  0  0  0  0  0  0  0  0  0  0
   -0.5444    1.8270   -0.8732 H   0  0  0  0  0  0  0  0  0  0  0  0
    1.4062    3.0821   -0.0092 H   0  0  0  0  0  0  0  0  0  0  0  0
    1.9410    1.6418    0.8895 H   0  0  0  0  0  0  0  0  0  0  0  0
    1.6213    1.8161   -2.0234 H   0  0  0  0  0  0  0  0  0  0  0  0
    2.6703   -0.3295   -2.0645 H   0  0  0  0  0  0  0  0  0  0  0  0
    2.6633   -0.3073   -0.2847 H   0  0  0  0  0  0  0  0  0  0  0  0
    0.1996   -0.1810   -2.0829 H   0  0  0  0  0  0  0  0  0  0  0  0
    0.7386   -1.5993   -1.1513 H   0  0  0  0  0  0  0  0  0  0  0  0
    0.4097   -0.3648    0.8516 H   0  0  0  0  0  0  0  0  0  0  0  0
    3.0548    1.8589   -1.2128 H   0  0  0  0  0  0  0  0  0  0  0  0
  1  6  1  0  0  0  0
  1  2  1  0  0  0  0
  1  7  1  0  0  0  0
  1  8  1  0  0  0  0
  2  3  1  0  0  0  0
  2  9  1  0  0  0  0
  2 10  1  0  0  0  0
  3  4  1  0  0  0  0
  3 11  1  0  0  0  0
  3 17  1  0  0  0  0
  4  5  1  0  0  0  0
  4 12  1  0  0  0  0
  4 13  1  0  0  0  0
  5  6  1  0  0  0  0
  5 14  1  0  0  0  0
  5 15  1  0  0  0  0
  6 16  1  0  0  0  0
M  CHG  1   3   1
M  END
$$$$
