ZINC00538415
 OpenBabel08292219463D

 50 52  0  0  0  0  0  0  0  0999 V2000
    0.1644    1.4893   -0.1294 C   0  0  0  0  0  0  0  0  0  0  0  0
    0.0130   -0.0288   -0.0148 C   0  0  0  0  0  0  0  0  0  0  0  0
   -1.4706   -0.3824    0.0650 C   0  0  0  0  0  0  0  0  0  0  0  0
   -2.0117    0.1040    1.4146 C   0  0  0  0  0  0  0  0  0  0  0  0
   -1.4152   -0.7705    2.5156 C   0  0  0  0  0  0  0  0  0  0  0  0
    0.0831   -0.8460    2.3785 C   0  0  0  0  0  0  0  0  0  0  0  0
    0.7392   -0.5090    1.2148 C   0  0  0  0  0  0  0  0  0  0  0  0
    2.1237   -0.6066    1.1498 C   0  0  0  0  0  0  0  0  0  0  0  0
    2.8499   -1.0343    2.2404 C   0  0  0  0  0  0  0  0  0  0  0  0
    2.1918   -1.3710    3.4162 C   0  0  0  0  0  0  0  0  0  0  0  0
    0.8103   -1.2753    3.4795 C   0  0  0  0  0  0  0  0  0  0  0  0
    2.9185   -1.8045    4.5294 N   0  0  0  0  0  0  0  0  0  0  0  0
    4.1510   -1.3118    4.7632 C   0  0  0  0  0  0  0  0  0  0  0  0
    4.5926   -0.4219    4.0630 O   0  0  0  0  0  0  0  0  0  0  0  0
    4.9670   -1.8546    5.8729 C   0  0  0  0  0  0  0  0  0  0  0  0
    4.4619   -2.8804    6.6731 C   0  0  0  0  0  0  0  0  0  0  0  0
    5.2210   -3.3861    7.7062 C   0  0  0  0  0  0  0  0  0  0  0  0
    6.4962   -2.8721    7.9521 C   0  0  0  0  0  0  0  0  0  0  0  0
    7.0013   -1.8458    7.1506 C   0  0  0  0  0  0  0  0  0  0  0  0
    6.2432   -1.3442    6.1147 C   0  0  0  0  0  0  0  0  0  0  0  0
    7.3105   -3.4135    9.0600 C   0  0  0  0  0  0  0  0  0  0  0  0
    6.8679   -4.3116    9.7617 O   0  0  0  0  0  0  0  0  0  0  0  0
    8.4267   -2.9634    9.2750 O   0  0  0  0  0  1  0  0  0  0  0  0
   -2.0027   -2.1796    2.4147 C   0  0  0  0  0  0  0  0  0  0  0  0
   -1.7676   -0.1743    3.8799 C   0  0  0  0  0  0  0  0  0  0  0  0
    0.6229   -0.6913   -1.2518 C   0  0  0  0  0  0  0  0  0  0  0  0
    1.2213    1.7443   -0.2064 H   0  0  0  0  0  0  0  0  0  0  0  0
   -0.3599    1.8407   -1.0181 H   0  0  0  0  0  0  0  0  0  0  0  0
   -0.2605    1.9646    0.7548 H   0  0  0  0  0  0  0  0  0  0  0  0
   -2.0092    0.1092   -0.7452 H   0  0  0  0  0  0  0  0  0  0  0  0
   -1.5953   -1.4624   -0.0129 H   0  0  0  0  0  0  0  0  0  0  0  0
   -1.7223    1.1428    1.5735 H   0  0  0  0  0  0  0  0  0  0  0  0
   -3.0984    0.0191    1.4266 H   0  0  0  0  0  0  0  0  0  0  0  0
    2.6358   -0.3449    0.2357 H   0  0  0  0  0  0  0  0  0  0  0  0
    3.9258   -1.1077    2.1807 H   0  0  0  0  0  0  0  0  0  0  0  0
    0.2962   -1.5368    4.3925 H   0  0  0  0  0  0  0  0  0  0  0  0
    2.5355   -2.4597    5.1334 H   0  0  0  0  0  0  0  0  0  0  0  0
    3.4759   -3.2777    6.4829 H   0  0  0  0  0  0  0  0  0  0  0  0
    4.8298   -4.1794    8.3259 H   0  0  0  0  0  0  0  0  0  0  0  0
    7.9872   -1.4477    7.3404 H   0  0  0  0  0  0  0  0  0  0  0  0
    6.6353   -0.5535    5.4923 H   0  0  0  0  0  0  0  0  0  0  0  0
   -1.7623   -2.6045    1.4402 H   0  0  0  0  0  0  0  0  0  0  0  0
   -1.5793   -2.8068    3.1991 H   0  0  0  0  0  0  0  0  0  0  0  0
   -3.0852   -2.1312    2.5329 H   0  0  0  0  0  0  0  0  0  0  0  0
   -2.8513   -0.1361    3.9907 H   0  0  0  0  0  0  0  0  0  0  0  0
   -1.3435   -0.7959    4.6685 H   0  0  0  0  0  0  0  0  0  0  0  0
   -1.3592    0.8336    3.9524 H   0  0  0  0  0  0  0  0  0  0  0  0
    1.6799   -0.4335   -1.3181 H   0  0  0  0  0  0  0  0  0  0  0  0
    0.5170   -1.7733   -1.1739 H   0  0  0  0  0  0  0  0  0  0  0  0
    0.1063   -0.3390   -2.1445 H   0  0  0  0  0  0  0  0  0  0  0  0
  1  2  1  0  0  0  0
  1 27  1  0  0  0  0
  1 28  1  0  0  0  0
  1 29  1  0  0  0  0
  2  7  1  0  0  0  0
  2  3  1  0  0  0  0
  2 26  1  0  0  0  0
  3  4  1  0  0  0  0
  3 30  1  0  0  0  0
  3 31  1  0  0  0  0
  4  5  1  0  0  0  0
  4 32  1  0  0  0  0
  4 33  1  0  0  0  0
  5  6  1  0  0  0  0
  5 24  1  0  0  0  0
  5 25  1  0  0  0  0
  6 11  2  0  0  0  0
  6  7  1  0  0  0  0
  7  8  2  0  0  0  0
  8  9  1  0  0  0  0
  8 34  1  0  0  0  0
  9 10  2  0  0  0  0
  9 35  1  0  0  0  0
 10 11  1  0  0  0  0
 10 12  1  0  0  0  0
 11 36  1  0  0  0  0
 12 13  1  0  0  0  0
 12 37  1  0  0  0  0
 13 14  2  0  0  0  0
 13 15  1  0  0  0  0
 15 20  2  0  0  0  0
 15 16  1  0  0  0  0
 16 17  2  0  0  0  0
 16 38  1  0  0  0  0
 17 18  1  0  0  0  0
 17 39  1  0  0  0  0
 18 19  2  0  0  0  0
 18 21  1  0  0  0  0
 19 20  1  0  0  0  0
 19 40  1  0  0  0  0
 20 41  1  0  0  0  0
 21 22  2  0  0  0  0
 21 23  1  0  0  0  0
 24 42  1  0  0  0  0
 24 43  1  0  0  0  0
 24 44  1  0  0  0  0
 25 45  1  0  0  0  0
 25 46  1  0  0  0  0
 25 47  1  0  0  0  0
 26 48  1  0  0  0  0
 26 49  1  0  0  0  0
 26 50  1  0  0  0  0
M  END
$$$$
