ZINC00001735
 OpenBabel08292219463D

 30 31  0  0  0  0  0  0  0  0999 V2000
   -0.0087    1.3713   -0.2068 C   0  0  0  0  0  0  0  0  0  0  0  0
    1.2061    2.0513   -0.2059 C   0  0  0  0  0  3  0  0  0  0  0  0
    2.3305    1.3682   -0.0067 N   0  0  0  0  0  0  0  0  0  0  0  0
    3.5717    2.0497   -0.0034 O   0  5  0  0  0  0  0  0  0  0  0  0
    2.3027    0.0586    0.1888 C   0  0  0  0  0  0  0  0  0  0  0  0
    1.1657   -0.6209    0.1941 N   0  0  0  0  0  0  0  0  0  0  0  0
    0.0021   -0.0041    0.0020 C   0  0  0  0  0  0  0  0  0  0  0  0
   -1.1848   -0.7234    0.0099 N   0  0  0  0  0  0  0  0  0  0  0  0
   -1.1697   -2.1926    0.0080 C   0  0  0  0  0  0  0  0  0  0  0  0
   -2.0165   -2.6959    1.1812 C   0  0  0  0  0  0  0  0  0  0  0  0
   -3.4156   -2.0815    1.0959 C   0  0  0  0  0  0  0  0  0  0  0  0
   -3.3123   -0.5577    1.1934 C   0  0  0  0  0  0  0  0  0  0  0  0
   -2.4801   -0.0302    0.0265 C   0  0  0  0  0  0  0  0  0  0  0  0
    3.4948   -0.6188    0.3929 N   0  0  0  0  0  0  0  0  0  0  0  0
    1.2440    3.4240   -0.4106 N   0  0  0  0  0  0  0  0  0  0  0  0
   -0.9379    1.8996   -0.3614 H   0  0  0  0  0  0  0  0  0  0  0  0
   -1.5877   -2.5610   -0.9288 H   0  0  0  0  0  0  0  0  0  0  0  0
   -0.1451   -2.5476    0.1181 H   0  0  0  0  0  0  0  0  0  0  0  0
   -2.0928   -3.7822    1.1352 H   0  0  0  0  0  0  0  0  0  0  0  0
   -1.5473   -2.4031    2.1205 H   0  0  0  0  0  0  0  0  0  0  0  0
   -3.8746   -2.3543    0.1456 H   0  0  0  0  0  0  0  0  0  0  0  0
   -4.0278   -2.4572    1.9157 H   0  0  0  0  0  0  0  0  0  0  0  0
   -4.3108   -0.1223    1.1561 H   0  0  0  0  0  0  0  0  0  0  0  0
   -2.8309   -0.2851    2.1326 H   0  0  0  0  0  0  0  0  0  0  0  0
   -2.3198    1.0410    0.1488 H   0  0  0  0  0  0  0  0  0  0  0  0
   -3.0073   -0.2184   -0.9088 H   0  0  0  0  0  0  0  0  0  0  0  0
    4.3347   -0.1337    0.3913 H   0  0  0  0  0  0  0  0  0  0  0  0
    3.4890   -1.5780    0.5374 H   0  0  0  0  0  0  0  0  0  0  0  0
    0.4204    3.9157   -0.5555 H   0  0  0  0  0  0  0  0  0  0  0  0
    2.0939    3.8914   -0.4088 H   0  0  0  0  0  0  0  0  0  0  0  0
  1  7  2  0  0  0  0
  1  2  1  0  0  0  0
  1 16  1  0  0  0  0
  2  3  1  0  0  0  0
  2 15  1  0  0  0  0
  3  4  1  0  0  0  0
  3  5  1  0  0  0  0
  5  6  2  0  0  0  0
  5 14  1  0  0  0  0
  6  7  1  0  0  0  0
  7  8  1  0  0  0  0
  8 13  1  0  0  0  0
  8  9  1  0  0  0  0
  9 10  1  0  0  0  0
  9 17  1  0  0  0  0
  9 18  1  0  0  0  0
 10 11  1  0  0  0  0
 10 19  1  0  0  0  0
 10 20  1  0  0  0  0
 11 12  1  0  0  0  0
 11 21  1  0  0  0  0
 11 22  1  0  0  0  0
 12 13  1  0  0  0  0
 12 23  1  0  0  0  0
 12 24  1  0  0  0  0
 13 25  1  0  0  0  0
 13 26  1  0  0  0  0
 14 27  1  0  0  0  0
 14 28  1  0  0  0  0
 15 29  1  0  0  0  0
 15 30  1  0  0  0  0
M  CHG  1   4  -1
M  END
$$$$
