ZINC00606383
 OpenBabel08292219463D

 43 46  0  0  1  0  0  0  0  0999 V2000
   -0.0167    1.3840    0.0097 C   0  0  0  0  0  0  0  0  0  0  0  0
    1.1323    2.1108    0.0026 C   0  0  0  0  0  0  0  0  0  0  0  0
    2.3939    1.4700   -0.0134 C   0  0  0  0  0  0  0  0  0  0  0  0
    3.7202    2.0695   -0.0229 C   0  0  0  0  0  0  0  0  0  0  0  0
    4.8000    1.2748   -0.0376 C   0  0  0  0  0  0  0  0  0  0  0  0
    4.1082   -0.3681   -0.0398 S   0  0  0  0  0  0  0  0  0  0  0  0
    2.3863    0.0584   -0.0209 C   0  0  0  0  0  0  0  0  0  0  0  0
    1.2140   -0.6681   -0.0139 C   0  0  0  0  0  0  0  0  0  0  0  0
    0.0021   -0.0041    0.0020 C   0  0  0  0  0  0  0  0  0  0  0  0
    1.2605   -2.4034   -0.0241 Cl  0  0  0  0  0  0  0  0  0  0  0  0
    3.8781    3.5682   -0.0167 C   0  0  0  0  0  0  0  0  0  0  0  0
    5.2678    3.9008   -0.0282 O   0  0  0  0  0  0  0  0  0  0  0  0
    5.5293    5.3057   -0.0235 C   0  0  2  0  0  0  0  0  0  0  0  0
    4.7257    5.8231    0.5006 H   0  0  0  0  0  0  0  0  0  0  0  0
    5.6090    5.8144   -1.4642 C   0  0  0  0  0  0  0  0  0  0  0  0
    4.3013    5.6657   -2.1077 N   0  0  0  0  0  0  0  0  0  0  0  0
    3.8564    4.5719   -2.8000 C   0  0  0  0  0  0  0  0  0  0  0  0
    2.6088    4.8571   -3.2191 C   0  0  0  0  0  0  0  0  0  0  0  0
    2.3003    6.0913   -2.7943 N   0  0  0  0  0  4  0  0  0  0  0  0
    3.3075    6.5799   -2.1235 C   0  0  0  0  0  0  0  0  0  0  0  0
    6.8376    5.5708    0.6760 C   0  0  0  0  0  0  0  0  0  0  0  0
    7.8068    4.5863    0.7253 C   0  0  0  0  0  0  0  0  0  0  0  0
    9.0068    4.8287    1.3665 C   0  0  0  0  0  0  0  0  0  0  0  0
    9.2390    6.0574    1.9593 C   0  0  0  0  0  0  0  0  0  0  0  0
    8.2699    7.0429    1.9098 C   0  0  0  0  0  0  0  0  0  0  0  0
    7.0706    6.8013    1.2636 C   0  0  0  0  0  0  0  0  0  0  0  0
    5.8560    8.0398    1.1958 Cl  0  0  0  0  0  0  0  0  0  0  0  0
   10.7462    6.3615    2.7652 Cl  0  0  0  0  0  0  0  0  0  0  0  0
   -0.9662    1.8985    0.0261 H   0  0  0  0  0  0  0  0  0  0  0  0
    1.0816    3.1896    0.0089 H   0  0  0  0  0  0  0  0  0  0  0  0
    5.8412    1.5618   -0.0460 H   0  0  0  0  0  0  0  0  0  0  0  0
   -0.9233   -0.5608    0.0085 H   0  0  0  0  0  0  0  0  0  0  0  0
    3.3968    3.9879   -0.9001 H   0  0  0  0  0  0  0  0  0  0  0  0
    3.4136    3.9788    0.8798 H   0  0  0  0  0  0  0  0  0  0  0  0
    5.8958    6.8660   -1.4629 H   0  0  0  0  0  0  0  0  0  0  0  0
    6.3520    5.2359   -2.0133 H   0  0  0  0  0  0  0  0  0  0  0  0
    4.4013    3.6564   -2.9765 H   0  0  0  0  0  0  0  0  0  0  0  0
    1.9688    4.2061   -3.7961 H   0  0  0  0  0  0  0  0  0  0  0  0
    3.3415    7.5548   -1.6601 H   0  0  0  0  0  0  0  0  0  0  0  0
    7.6260    3.6272    0.2628 H   0  0  0  0  0  0  0  0  0  0  0  0
    9.7633    4.0589    1.4053 H   0  0  0  0  0  0  0  0  0  0  0  0
    8.4507    8.0020    2.3723 H   0  0  0  0  0  0  0  0  0  0  0  0
    1.4597    6.5474   -2.9568 H   0  0  0  0  0  0  0  0  0  0  0  0
  1  9  2  0  0  0  0
  1  2  1  0  0  0  0
  1 29  1  0  0  0  0
  2  3  2  0  0  0  0
  2 30  1  0  0  0  0
  3  7  1  0  0  0  0
  3  4  1  0  0  0  0
  4  5  2  0  0  0  0
  4 11  1  0  0  0  0
  5  6  1  0  0  0  0
  5 31  1  0  0  0  0
  6  7  1  0  0  0  0
  7  8  2  0  0  0  0
  8  9  1  0  0  0  0
  8 10  1  0  0  0  0
  9 32  1  0  0  0  0
 11 12  1  0  0  0  0
 11 33  1  0  0  0  0
 11 34  1  0  0  0  0
 12 13  1  0  0  0  0
 13 14  1  1  0  0  0
 13 15  1  0  0  0  0
 13 21  1  0  0  0  0
 15 16  1  0  0  0  0
 15 35  1  0  0  0  0
 15 36  1  0  0  0  0
 16 20  1  0  0  0  0
 16 17  1  0  0  0  0
 17 18  2  0  0  0  0
 17 37  1  0  0  0  0
 18 19  1  0  0  0  0
 18 38  1  0  0  0  0
 19 20  2  0  0  0  0
 19 43  1  0  0  0  0
 20 39  1  0  0  0  0
 21 26  2  0  0  0  0
 21 22  1  0  0  0  0
 22 23  2  0  0  0  0
 22 40  1  0  0  0  0
 23 24  1  0  0  0  0
 23 41  1  0  0  0  0
 24 25  2  0  0  0  0
 24 28  1  0  0  0  0
 25 26  1  0  0  0  0
 25 42  1  0  0  0  0
 26 27  1  0  0  0  0
M  END
$$$$
