ZINC01532522
 OpenBabel08292219463D

 25 24  0  0  1  0  0  0  0  0999 V2000
   -0.0187    1.5258    0.0104 C   0  0  0  0  0  0  0  0  0  0  0  0
    0.0021   -0.0041    0.0020 C   0  0  0  0  0  0  0  0  0  0  0  0
   -1.4333   -0.5336    0.0129 C   0  0  0  0  0  0  0  0  0  0  0  0
   -1.4134   -2.0025    0.0048 N   0  3  0  0  0  0  0  0  0  0  0  0
    1.4167    2.0553   -0.0004 C   0  0  0  0  0  0  0  0  0  0  0  0
    1.3960    3.5852    0.0080 C   0  0  1  0  0  0  0  0  0  0  0  0
    0.8097    3.9359    0.8573 H   0  0  0  0  0  0  0  0  0  0  0  0
    2.8055    4.1061    0.1212 C   0  0  0  0  0  0  0  0  0  0  0  0
    3.4577    4.3237   -0.8857 O   0  0  0  0  0  0  0  0  0  0  0  0
    3.2938    4.3099    1.2196 O   0  0  0  0  0  1  0  0  0  0  0  0
    0.7921    4.0736   -1.2389 N   0  3  0  0  0  0  0  0  0  0  0  0
   -0.5459    1.8868   -0.8726 H   0  0  0  0  0  0  0  0  0  0  0  0
   -0.5289    1.8773    0.9072 H   0  0  0  0  0  0  0  0  0  0  0  0
    0.5123   -0.3556   -0.8948 H   0  0  0  0  0  0  0  0  0  0  0  0
    0.5293   -0.3651    0.8851 H   0  0  0  0  0  0  0  0  0  0  0  0
   -1.9435   -0.1821    0.9097 H   0  0  0  0  0  0  0  0  0  0  0  0
   -1.9605   -0.1726   -0.8702 H   0  0  0  0  0  0  0  0  0  0  0  0
   -0.9411   -2.3279   -0.8254 H   0  0  0  0  0  0  0  0  0  0  0  0
   -0.9254   -2.3367    0.8222 H   0  0  0  0  0  0  0  0  0  0  0  0
    1.9439    1.6943    0.8826 H   0  0  0  0  0  0  0  0  0  0  0  0
    1.9269    1.7038   -0.8972 H   0  0  0  0  0  0  0  0  0  0  0  0
    1.3348    3.7489   -2.0252 H   0  0  0  0  0  0  0  0  0  0  0  0
   -0.1517    3.7248   -1.3147 H   0  0  0  0  0  0  0  0  0  0  0  0
    0.7784    5.0825   -1.2334 H   0  0  0  0  0  0  0  0  0  0  0  0
   -2.3600   -2.3517    0.0120 H   0  0  0  0  0  0  0  0  0  0  0  0
  1  2  1  0  0  0  0
  1  5  1  0  0  0  0
  1 12  1  0  0  0  0
  1 13  1  0  0  0  0
  2  3  1  0  0  0  0
  2 14  1  0  0  0  0
  2 15  1  0  0  0  0
  3  4  1  0  0  0  0
  3 16  1  0  0  0  0
  3 17  1  0  0  0  0
  4 18  1  0  0  0  0
  4 19  1  0  0  0  0
  4 25  1  0  0  0  0
  5  6  1  0  0  0  0
  5 20  1  0  0  0  0
  5 21  1  0  0  0  0
  6  7  1  1  0  0  0
  6  8  1  0  0  0  0
  6 11  1  0  0  0  0
  8  9  2  0  0  0  0
  8 10  1  0  0  0  0
 11 22  1  0  0  0  0
 11 23  1  0  0  0  0
 11 24  1  0  0  0  0
M  CHG  2   4   1  11   1
M  END
$$$$
