ZINC04097416
 OpenBabel08292219463D

 53 56  0  0  1  0  0  0  0  0999 V2000
    0.1594    1.6766    0.2363 C   0  0  0  0  0  0  0  0  0  0  0  0
    0.0512    0.1509    0.1959 C   0  0  0  0  0  0  0  0  0  0  0  0
    0.9337   -0.4521    1.2906 C   0  0  2  0  0  0  0  0  0  0  0  0
    2.3604    0.0518    1.1410 C   0  0  0  0  0  0  0  0  0  0  0  0
    2.8379   -0.4055   -0.2299 C   0  0  0  0  0  0  0  0  0  0  0  0
    3.3985    0.4460   -1.0526 C   0  0  0  0  0  0  0  0  0  0  0  0
    2.6603   -1.8471   -0.6321 C   0  0  1  0  0  0  0  0  0  0  0  0
    3.3765   -2.4639   -0.0892 H   0  0  0  0  0  0  0  0  0  0  0  0
    1.2322   -2.3183   -0.3059 C   0  0  2  0  0  0  0  0  0  0  0  0
    0.5191   -1.7827   -0.9325 H   0  0  0  0  0  0  0  0  0  0  0  0
    0.9672   -1.9986    1.1513 C   0  0  2  0  0  0  0  0  0  0  0  0
    1.7449   -2.4218    1.7871 H   0  0  0  0  0  0  0  0  0  0  0  0
   -0.4282   -2.3893    1.6547 C   0  0  0  0  0  0  0  0  0  0  0  0
   -0.6339   -1.4577    2.8788 C   0  0  0  0  0  0  0  0  0  0  0  0
    0.2884   -0.2344    2.6574 C   0  0  1  0  0  0  0  0  0  0  0  0
    1.3209   -0.1787    3.7050 C   0  0  0  0  0  0  0  0  0  0  0  0
    2.1444   -0.1343    4.5406 C   0  0  0  0  0  0  0  0  0  0  0  0
   -0.4803    0.9703    2.6549 O   0  0  0  0  0  0  0  0  0  0  0  0
    1.1300   -3.8176   -0.5814 C   0  0  0  0  0  0  0  0  0  0  0  0
    1.3201   -4.0647   -2.0819 C   0  0  0  0  0  0  0  0  0  0  0  0
    2.6323   -3.4368   -2.5194 C   0  0  0  0  0  0  0  0  0  0  0  0
    3.4607   -4.1643   -3.2102 C   0  0  0  0  0  0  0  0  0  0  0  0
    4.7908   -3.6639   -3.6945 C   0  0  0  0  0  0  0  0  0  0  0  0
    4.7303   -2.1400   -3.8381 C   0  0  0  0  0  0  0  0  0  0  0  0
    4.2968   -1.5469   -2.4977 C   0  0  0  0  0  0  0  0  0  0  0  0
    2.8861   -2.0139   -2.1356 C   0  0  2  0  0  0  0  0  0  0  0  0
    2.1694   -1.3833   -2.6617 H   0  0  0  0  0  0  0  0  0  0  0  0
    1.2076    1.9683    0.1711 H   0  0  0  0  0  0  0  0  0  0  0  0
   -0.3892    2.1021   -0.6040 H   0  0  0  0  0  0  0  0  0  0  0  0
   -0.2632    2.0462    1.1706 H   0  0  0  0  0  0  0  0  0  0  0  0
   -0.9850   -0.1443    0.3608 H   0  0  0  0  0  0  0  0  0  0  0  0
    0.3816   -0.2111   -0.7777 H   0  0  0  0  0  0  0  0  0  0  0  0
    2.3805    1.1400    1.2000 H   0  0  0  0  0  0  0  0  0  0  0  0
    2.9918   -0.3775    1.9190 H   0  0  0  0  0  0  0  0  0  0  0  0
    3.9509    1.2887   -0.6638 H   0  0  0  0  0  0  0  0  0  0  0  0
    3.3083    0.3054   -2.1196 H   0  0  0  0  0  0  0  0  0  0  0  0
   -1.1816   -2.1943    0.8915 H   0  0  0  0  0  0  0  0  0  0  0  0
   -0.4488   -3.4356    1.9593 H   0  0  0  0  0  0  0  0  0  0  0  0
   -1.6741   -1.1367    2.9340 H   0  0  0  0  0  0  0  0  0  0  0  0
   -0.3531   -1.9767    3.7952 H   0  0  0  0  0  0  0  0  0  0  0  0
    2.8809   -0.0946    5.2879 H   0  0  0  0  0  0  0  0  0  0  0  0
   -0.9145    1.1615    3.4975 H   0  0  0  0  0  0  0  0  0  0  0  0
    1.9047   -4.3443   -0.0241 H   0  0  0  0  0  0  0  0  0  0  0  0
    0.1486   -4.1787   -0.2738 H   0  0  0  0  0  0  0  0  0  0  0  0
    1.3460   -5.1372   -2.2751 H   0  0  0  0  0  0  0  0  0  0  0  0
    0.4964   -3.6119   -2.6339 H   0  0  0  0  0  0  0  0  0  0  0  0
    3.1774   -5.1792   -3.4469 H   0  0  0  0  0  0  0  0  0  0  0  0
    5.5649   -3.9318   -2.9754 H   0  0  0  0  0  0  0  0  0  0  0  0
    5.0189   -4.1124   -4.6614 H   0  0  0  0  0  0  0  0  0  0  0  0
    5.7146   -1.7573   -4.1079 H   0  0  0  0  0  0  0  0  0  0  0  0
    4.0078   -1.8722   -4.6090 H   0  0  0  0  0  0  0  0  0  0  0  0
    4.9925   -1.8663   -1.7218 H   0  0  0  0  0  0  0  0  0  0  0  0
    4.3101   -0.4590   -2.5652 H   0  0  0  0  0  0  0  0  0  0  0  0
  1  2  1  0  0  0  0
  1 28  1  0  0  0  0
  1 29  1  0  0  0  0
  1 30  1  0  0  0  0
  2 31  1  0  0  0  0
  2 32  1  0  0  0  0
  3  2  1  6  0  0  0
  3 11  1  0  0  0  0
  3 15  1  0  0  0  0
  3  4  1  0  0  0  0
  4  5  1  0  0  0  0
  4 33  1  0  0  0  0
  4 34  1  0  0  0  0
  5  6  2  0  0  0  0
  5  7  1  0  0  0  0
  6 35  1  0  0  0  0
  6 36  1  0  0  0  0
  7  8  1  1  0  0  0
  7 26  1  0  0  0  0
  7  9  1  0  0  0  0
  9 10  1  6  0  0  0
  9 11  1  0  0  0  0
  9 19  1  0  0  0  0
 11 12  1  1  0  0  0
 11 13  1  0  0  0  0
 13 14  1  0  0  0  0
 13 37  1  0  0  0  0
 13 38  1  0  0  0  0
 14 15  1  0  0  0  0
 14 39  1  0  0  0  0
 14 40  1  0  0  0  0
 15 16  1  1  0  0  0
 15 18  1  0  0  0  0
 16 17  3  0  0  0  0
 17 41  1  0  0  0  0
 18 42  1  0  0  0  0
 19 20  1  0  0  0  0
 19 43  1  0  0  0  0
 19 44  1  0  0  0  0
 20 21  1  0  0  0  0
 20 45  1  0  0  0  0
 20 46  1  0  0  0  0
 21 26  1  0  0  0  0
 21 22  2  0  0  0  0
 22 23  1  0  0  0  0
 22 47  1  0  0  0  0
 23 24  1  0  0  0  0
 23 48  1  0  0  0  0
 23 49  1  0  0  0  0
 24 25  1  0  0  0  0
 24 50  1  0  0  0  0
 24 51  1  0  0  0  0
 25 26  1  0  0  0  0
 25 52  1  0  0  0  0
 25 53  1  0  0  0  0
 26 27  1  6  0  0  0
M  END
$$$$
