ZINC02169830
 OpenBabel08292219463D

 32 34  0  0  1  0  0  0  0  0999 V2000
   -0.0158    1.3119    0.0093 C   0  0  0  0  0  0  0  0  0  0  0  0
    1.0888    2.0360    0.0026 N   0  0  0  0  0  0  0  0  0  0  0  0
    2.2875    1.4625   -0.0119 C   0  0  0  0  0  0  0  0  0  0  0  0
    2.3582    0.0588   -0.0202 C   0  0  0  0  0  0  0  0  0  0  0  0
    1.1547   -0.6659   -0.0126 C   0  0  0  0  0  0  0  0  0  0  0  0
    0.0021   -0.0041    0.0020 N   0  0  0  0  0  0  0  0  0  0  0  0
    1.5110   -1.9908   -0.0227 N   0  0  0  0  0  0  0  0  0  0  0  0
    2.8729   -2.0476   -0.0358 C   0  0  0  0  0  0  0  0  0  0  0  0
    3.3680   -0.8441   -0.0343 N   0  0  0  0  0  0  0  0  0  0  0  0
    0.5956   -3.1347   -0.0195 C   0  0  1  0  0  0  0  0  0  0  0  0
   -0.2832   -2.9148    0.5866 H   0  0  0  0  0  0  0  0  0  0  0  0
    0.1775   -3.4928   -1.4629 C   0  0  1  0  0  0  0  0  0  0  0  0
    0.9267   -3.1463   -2.1747 H   0  0  0  0  0  0  0  0  0  0  0  0
    0.1056   -5.0362   -1.4608 C   0  0  1  0  0  0  0  0  0  0  0  0
    0.8193   -5.4528   -2.1716 H   0  0  0  0  0  0  0  0  0  0  0  0
    0.4888   -5.4280   -0.0165 C   0  0  2  0  0  0  0  0  0  0  0  0
   -0.4066   -5.5617    0.5906 H   0  0  0  0  0  0  0  0  0  0  0  0
    1.2661   -4.3138    0.4763 O   0  0  0  0  0  0  0  0  0  0  0  0
    1.3272   -6.7078   -0.0164 C   0  0  0  0  0  0  0  0  0  0  0  0
    1.5723   -7.1166    1.3308 O   0  0  0  0  0  0  0  0  0  0  0  0
   -1.2191   -5.4762   -1.7672 O   0  0  0  0  0  0  0  0  0  0  0  0
   -1.0998   -2.9297   -1.7685 O   0  0  0  0  0  0  0  0  0  0  0  0
    3.4393    2.2295   -0.0193 N   0  0  0  0  0  0  0  0  0  0  0  0
   -0.9693    1.8187    0.0257 H   0  0  0  0  0  0  0  0  0  0  0  0
    3.4551   -2.9572   -0.0459 H   0  0  0  0  0  0  0  0  0  0  0  0
    0.7880   -7.4954   -0.5427 H   0  0  0  0  0  0  0  0  0  0  0  0
    2.2767   -6.5201   -0.5176 H   0  0  0  0  0  0  0  0  0  0  0  0
    2.0996   -7.9235    1.4072 H   0  0  0  0  0  0  0  0  0  0  0  0
   -1.3212   -6.4377   -1.7794 H   0  0  0  0  0  0  0  0  0  0  0  0
   -1.4113   -3.1237   -2.6632 H   0  0  0  0  0  0  0  0  0  0  0  0
    3.3774    3.1975   -0.0138 H   0  0  0  0  0  0  0  0  0  0  0  0
    4.3085    1.7992   -0.0299 H   0  0  0  0  0  0  0  0  0  0  0  0
  1  6  2  0  0  0  0
  1  2  1  0  0  0  0
  1 24  1  0  0  0  0
  2  3  2  0  0  0  0
  3  4  1  0  0  0  0
  3 23  1  0  0  0  0
  4  9  1  0  0  0  0
  4  5  2  0  0  0  0
  5  6  1  0  0  0  0
  5  7  1  0  0  0  0
  7  8  1  0  0  0  0
  7 10  1  0  0  0  0
  8  9  2  0  0  0  0
  8 25  1  0  0  0  0
 10 11  1  1  0  0  0
 10 18  1  0  0  0  0
 10 12  1  0  0  0  0
 12 13  1  6  0  0  0
 12 14  1  0  0  0  0
 12 22  1  0  0  0  0
 14 15  1  6  0  0  0
 14 16  1  0  0  0  0
 14 21  1  0  0  0  0
 16 17  1  1  0  0  0
 16 18  1  0  0  0  0
 16 19  1  0  0  0  0
 19 20  1  0  0  0  0
 19 26  1  0  0  0  0
 19 27  1  0  0  0  0
 20 28  1  0  0  0  0
 21 29  1  0  0  0  0
 22 30  1  0  0  0  0
 23 31  1  0  0  0  0
 23 32  1  0  0  0  0
M  END
$$$$
