ZINC02510358
 OpenBabel08292219463D

 31 33  0  0  0  0  0  0  0  0999 V2000
    0.0037    1.4140   -0.0906 C   0  0  0  0  0  0  0  0  0  0  0  0
    0.9535    1.6578   -1.0649 C   0  0  0  0  0  0  0  0  0  0  0  0
    2.1533    0.9716   -1.0477 C   0  0  0  0  0  0  0  0  0  0  0  0
    2.4036    0.0418   -0.0558 C   0  0  0  0  0  0  0  0  0  0  0  0
    1.4541   -0.2014    0.9191 C   0  0  0  0  0  0  0  0  0  0  0  0
    0.2537    0.4839    0.9010 C   0  0  0  0  0  0  0  0  0  0  0  0
    3.7112   -0.7071   -0.0376 C   0  0  0  0  0  0  0  0  0  0  0  0
    4.2770   -0.7580    1.3678 C   0  0  0  0  0  0  0  0  0  0  0  0
    3.7702   -1.2695    2.3431 O   0  0  0  0  0  0  0  0  0  0  0  0
    5.4611   -0.1172    1.3072 N   0  0  0  0  0  0  0  0  0  0  0  0
    5.7193    0.3268    0.0718 C   0  0  0  0  0  0  0  0  0  0  0  0
    6.7274    0.9345   -0.2307 O   0  0  0  0  0  0  0  0  0  0  0  0
    4.7385    0.0252   -0.7981 N   0  0  0  0  0  0  0  0  0  0  0  0
    3.5320   -2.0973   -0.5912 C   0  0  0  0  0  0  0  0  0  0  0  0
    4.3008   -2.5203   -1.6592 C   0  0  0  0  0  0  0  0  0  0  0  0
    4.1364   -3.7955   -2.1670 C   0  0  0  0  0  0  0  0  0  0  0  0
    3.2035   -4.6477   -1.6065 C   0  0  0  0  0  0  0  0  0  0  0  0
    2.4353   -4.2250   -0.5378 C   0  0  0  0  0  0  0  0  0  0  0  0
    2.6027   -2.9513   -0.0273 C   0  0  0  0  0  0  0  0  0  0  0  0
   -0.9319    1.9534   -0.1014 H   0  0  0  0  0  0  0  0  0  0  0  0
    0.7580    2.3843   -1.8398 H   0  0  0  0  0  0  0  0  0  0  0  0
    2.8951    1.1615   -1.8093 H   0  0  0  0  0  0  0  0  0  0  0  0
    1.6494   -0.9283    1.6936 H   0  0  0  0  0  0  0  0  0  0  0  0
   -0.4882    0.2936    1.6624 H   0  0  0  0  0  0  0  0  0  0  0  0
    6.0528    0.0071    2.0657 H   0  0  0  0  0  0  0  0  0  0  0  0
    4.7129    0.2464   -1.7422 H   0  0  0  0  0  0  0  0  0  0  0  0
    5.0297   -1.8545   -2.0972 H   0  0  0  0  0  0  0  0  0  0  0  0
    4.7366   -4.1257   -3.0020 H   0  0  0  0  0  0  0  0  0  0  0  0
    3.0746   -5.6437   -2.0037 H   0  0  0  0  0  0  0  0  0  0  0  0
    1.7062   -4.8907   -0.1001 H   0  0  0  0  0  0  0  0  0  0  0  0
    2.0051   -2.6223    0.8100 H   0  0  0  0  0  0  0  0  0  0  0  0
  1  6  2  0  0  0  0
  1  2  1  0  0  0  0
  1 20  1  0  0  0  0
  2  3  2  0  0  0  0
  2 21  1  0  0  0  0
  3  4  1  0  0  0  0
  3 22  1  0  0  0  0
  4  5  2  0  0  0  0
  4  7  1  0  0  0  0
  5  6  1  0  0  0  0
  5 23  1  0  0  0  0
  6 24  1  0  0  0  0
  7 13  1  0  0  0  0
  7  8  1  0  0  0  0
  7 14  1  0  0  0  0
  8  9  2  0  0  0  0
  8 10  1  0  0  0  0
 10 11  1  0  0  0  0
 10 25  1  0  0  0  0
 11 12  2  0  0  0  0
 11 13  1  0  0  0  0
 13 26  1  0  0  0  0
 14 19  2  0  0  0  0
 14 15  1  0  0  0  0
 15 16  2  0  0  0  0
 15 27  1  0  0  0  0
 16 17  1  0  0  0  0
 16 28  1  0  0  0  0
 17 18  2  0  0  0  0
 17 29  1  0  0  0  0
 18 19  1  0  0  0  0
 18 30  1  0  0  0  0
 19 31  1  0  0  0  0
M  END
$$$$
