ZINC03964126
 OpenBabel08292219463D

 47 50  0  0  1  0  0  0  0  0999 V2000
    1.0727    1.9592    0.6812 C   0  0  0  0  0  0  0  0  0  0  0  0
   -0.1132    1.2525    0.6888 C   0  0  0  0  0  0  0  0  0  0  0  0
   -1.2226    1.7506    0.0184 C   0  0  0  0  0  0  0  0  0  0  0  0
   -1.1422    2.9647   -0.6507 C   0  0  0  0  0  0  0  0  0  0  0  0
    0.0437    3.6715   -0.6583 C   0  0  0  0  0  0  0  0  0  0  0  0
    1.1546    3.1708    0.0076 C   0  0  0  0  0  0  0  0  0  0  0  0
    2.3581    3.8877   -0.0005 N   0  0  0  0  0  0  0  0  0  0  0  0
    2.5931    4.8772    1.0482 C   0  0  0  0  0  0  0  0  0  0  0  0
    4.0888    5.1965    1.1356 C   0  0  0  0  0  0  0  0  0  0  0  0
    4.5712    5.4824   -0.1825 O   0  0  0  0  0  0  0  0  0  0  0  0
    4.5797    4.3347   -1.0350 C   0  0  0  0  0  0  0  0  0  0  0  0
    3.2461    3.6433   -0.9721 C   0  0  0  0  0  0  0  0  0  0  0  0
    2.9650    2.8353   -1.8318 O   0  0  0  0  0  0  0  0  0  0  0  0
   -2.4246    1.0306    0.0213 N   0  0  0  0  0  0  0  0  0  0  0  0
   -3.6713    1.4445   -0.6405 C   0  0  0  0  0  0  0  0  0  0  0  0
   -4.6527    0.2997   -0.3234 C   0  0  1  0  0  0  0  0  0  0  0  0
   -4.9922   -0.1850   -1.2387 H   0  0  0  0  0  0  0  0  0  0  0  0
   -3.8672   -0.6251    0.4832 O   0  0  0  0  0  0  0  0  0  0  0  0
   -2.6274   -0.1447    0.6323 C   0  0  0  0  0  0  0  0  0  0  0  0
   -1.7645   -0.7211    1.2644 O   0  0  0  0  0  0  0  0  0  0  0  0
   -5.8453    0.8287    0.4759 C   0  0  0  0  0  0  0  0  0  0  0  0
   -6.7161   -0.2882    0.8507 N   0  0  0  0  0  0  0  0  0  0  0  0
   -7.8363   -0.0593    1.5642 C   0  0  0  0  0  0  0  0  0  0  0  0
   -8.1246    1.0754    1.8972 O   0  0  0  0  0  0  0  0  0  0  0  0
   -8.7069   -1.1760    1.9389 C   0  0  0  0  0  0  0  0  0  0  0  0
   -9.8871   -1.1579    2.6664 C   0  0  0  0  0  0  0  0  0  0  0  0
  -10.5123   -2.3614    2.8737 C   0  0  0  0  0  0  0  0  0  0  0  0
   -9.9503   -3.4958    2.3746 C   0  0  0  0  0  0  0  0  0  0  0  0
   -8.5206   -2.9147    1.5849 S   0  0  0  0  0  0  0  0  0  0  0  0
  -10.5259   -5.1289    2.4983 Cl  0  0  0  0  0  0  0  0  0  0  0  0
    1.9366    1.5699    1.1994 H   0  0  0  0  0  0  0  0  0  0  0  0
   -0.1769    0.3101    1.2123 H   0  0  0  0  0  0  0  0  0  0  0  0
   -2.0061    3.3540   -1.1689 H   0  0  0  0  0  0  0  0  0  0  0  0
    0.1075    4.6136   -1.1825 H   0  0  0  0  0  0  0  0  0  0  0  0
    2.0381    5.7868    0.8186 H   0  0  0  0  0  0  0  0  0  0  0  0
    2.2533    4.4791    2.0043 H   0  0  0  0  0  0  0  0  0  0  0  0
    4.6258    4.3404    1.5439 H   0  0  0  0  0  0  0  0  0  0  0  0
    4.2394    6.0652    1.7766 H   0  0  0  0  0  0  0  0  0  0  0  0
    5.3601    3.6470   -0.7091 H   0  0  0  0  0  0  0  0  0  0  0  0
    4.7781    4.6465   -2.0604 H   0  0  0  0  0  0  0  0  0  0  0  0
   -4.0309    2.3859   -0.2252 H   0  0  0  0  0  0  0  0  0  0  0  0
   -3.5227    1.5316   -1.7168 H   0  0  0  0  0  0  0  0  0  0  0  0
   -5.4868    1.3278    1.3761 H   0  0  0  0  0  0  0  0  0  0  0  0
   -6.4057    1.5375   -0.1339 H   0  0  0  0  0  0  0  0  0  0  0  0
   -6.4863   -1.1925    0.5853 H   0  0  0  0  0  0  0  0  0  0  0  0
  -10.2979   -0.2360    3.0507 H   0  0  0  0  0  0  0  0  0  0  0  0
  -11.4367   -2.4085    3.4302 H   0  0  0  0  0  0  0  0  0  0  0  0
  1  6  2  0  0  0  0
  1  2  1  0  0  0  0
  1 31  1  0  0  0  0
  2  3  2  0  0  0  0
  2 32  1  0  0  0  0
  3  4  1  0  0  0  0
  3 14  1  0  0  0  0
  4  5  2  0  0  0  0
  4 33  1  0  0  0  0
  5  6  1  0  0  0  0
  5 34  1  0  0  0  0
  6  7  1  0  0  0  0
  7 12  1  0  0  0  0
  7  8  1  0  0  0  0
  8  9  1  0  0  0  0
  8 35  1  0  0  0  0
  8 36  1  0  0  0  0
  9 10  1  0  0  0  0
  9 37  1  0  0  0  0
  9 38  1  0  0  0  0
 10 11  1  0  0  0  0
 11 12  1  0  0  0  0
 11 39  1  0  0  0  0
 11 40  1  0  0  0  0
 12 13  2  0  0  0  0
 14 19  1  0  0  0  0
 14 15  1  0  0  0  0
 15 16  1  0  0  0  0
 15 41  1  0  0  0  0
 15 42  1  0  0  0  0
 16 17  1  6  0  0  0
 16 18  1  0  0  0  0
 16 21  1  0  0  0  0
 18 19  1  0  0  0  0
 19 20  2  0  0  0  0
 21 22  1  0  0  0  0
 21 43  1  0  0  0  0
 21 44  1  0  0  0  0
 22 23  1  0  0  0  0
 22 45  1  0  0  0  0
 23 24  2  0  0  0  0
 23 25  1  0  0  0  0
 25 29  1  0  0  0  0
 25 26  2  0  0  0  0
 26 27  1  0  0  0  0
 26 46  1  0  0  0  0
 27 28  2  0  0  0  0
 27 47  1  0  0  0  0
 28 29  1  0  0  0  0
 28 30  1  0  0  0  0
M  END
$$$$
