ZINC03834198
 OpenBabel08292219463D

 55 58  0  0  1  0  0  0  0  0999 V2000
    2.2102    1.3214   -1.5438 C   0  0  0  0  0  0  0  0  0  0  0  0
    2.0302   -0.1310   -1.4177 N   0  3  1  0  0  0  0  0  0  0  0  0
    2.8485   -0.8135   -2.4272 C   0  0  0  0  0  0  0  0  0  0  0  0
    2.6029   -2.3220   -2.3537 C   0  0  0  0  0  0  0  0  0  0  0  0
    2.9828   -2.8281   -0.9591 C   0  0  1  0  0  0  0  0  0  0  0  0
    2.1768   -2.0570    0.0901 C   0  0  0  0  0  0  0  0  0  0  0  0
    2.4382   -0.5583   -0.0740 C   0  0  0  0  0  0  0  0  0  0  0  0
    2.6653   -4.3210   -0.8526 C   0  0  0  0  0  0  0  0  0  0  0  0
    3.1265   -4.8175    0.4056 O   0  0  0  0  0  0  0  0  0  0  0  0
    2.9210   -6.1358    0.6612 C   0  0  0  0  0  0  0  0  0  0  0  0
    2.2972   -6.9233   -0.2811 C   0  0  0  0  0  0  0  0  0  0  0  0
    2.0867   -8.2816   -0.0149 C   0  0  0  0  0  0  0  0  0  0  0  0
    2.5192   -8.8246    1.2204 C   0  0  0  0  0  0  0  0  0  0  0  0
    3.1508   -8.0026    2.1612 C   0  0  0  0  0  0  0  0  0  0  0  0
    3.3512   -6.6812    1.8787 C   0  0  0  0  0  0  0  0  0  0  0  0
    3.9702   -5.8850    2.7909 O   0  0  0  0  0  0  0  0  0  0  0  0
    4.3854   -6.4992    4.0125 C   0  0  0  0  0  0  0  0  0  0  0  0
    2.2930  -10.2009    1.4605 C   0  0  0  0  0  0  0  0  0  0  0  0
    1.6881  -10.9114    0.5174 N   0  0  0  0  0  0  0  0  0  0  0  0
    1.3012  -10.3606   -0.6222 C   0  0  0  0  0  0  0  0  0  0  0  0
    1.4842   -9.0917   -0.8996 N   0  0  0  0  0  0  0  0  0  0  0  0
    2.6915  -10.7885    2.6441 N   0  0  0  0  0  0  0  0  0  0  0  0
    2.5831  -12.1741    2.8088 C   0  0  0  0  0  0  0  0  0  0  0  0
    2.4560  -12.9987    1.6992 C   0  0  0  0  0  0  0  0  0  0  0  0
    2.3491  -14.3660    1.8644 C   0  0  0  0  0  0  0  0  0  0  0  0
    2.3685  -14.9152    3.1341 C   0  0  0  0  0  0  0  0  0  0  0  0
    2.4949  -14.0974    4.2430 C   0  0  0  0  0  0  0  0  0  0  0  0
    2.6081  -12.7284    4.0841 C   0  0  0  0  0  0  0  0  0  0  0  0
    2.7372  -11.9301    5.1664 F   0  0  0  0  0  0  0  0  0  0  0  0
    2.2212  -16.7875    3.3546 Br  0  0  0  0  0  0  0  0  0  0  0  0
    3.2589    1.5727   -1.3848 H   0  0  0  0  0  0  0  0  0  0  0  0
    1.9075    1.6398   -2.5414 H   0  0  0  0  0  0  0  0  0  0  0  0
    1.5979    1.8295   -0.7989 H   0  0  0  0  0  0  0  0  0  0  0  0
    2.5792   -0.4499   -3.4189 H   0  0  0  0  0  0  0  0  0  0  0  0
    3.9024   -0.6078   -2.2397 H   0  0  0  0  0  0  0  0  0  0  0  0
    1.5493   -2.5288   -2.5414 H   0  0  0  0  0  0  0  0  0  0  0  0
    3.2127   -2.8271   -3.1028 H   0  0  0  0  0  0  0  0  0  0  0  0
    4.0478   -2.6678   -0.7908 H   0  0  0  0  0  0  0  0  0  0  0  0
    1.1143   -2.2583   -0.0469 H   0  0  0  0  0  0  0  0  0  0  0  0
    2.4820   -2.3726    1.0878 H   0  0  0  0  0  0  0  0  0  0  0  0
    3.5008   -0.3580    0.0634 H   0  0  0  0  0  0  0  0  0  0  0  0
    1.8660   -0.0063    0.6716 H   0  0  0  0  0  0  0  0  0  0  0  0
    1.5883   -4.4698   -0.9292 H   0  0  0  0  0  0  0  0  0  0  0  0
    3.1645   -4.8571   -1.6597 H   0  0  0  0  0  0  0  0  0  0  0  0
    1.9724   -6.4960   -1.2182 H   0  0  0  0  0  0  0  0  0  0  0  0
    3.4818   -8.4122    3.1042 H   0  0  0  0  0  0  0  0  0  0  0  0
    4.8638   -5.7549    4.6491 H   0  0  0  0  0  0  0  0  0  0  0  0
    3.5165   -6.9116    4.5254 H   0  0  0  0  0  0  0  0  0  0  0  0
    5.0925   -7.2996    3.7947 H   0  0  0  0  0  0  0  0  0  0  0  0
    0.8133  -10.9840   -1.3569 H   0  0  0  0  0  0  0  0  0  0  0  0
    3.0467  -10.2411    3.3618 H   0  0  0  0  0  0  0  0  0  0  0  0
    2.4404  -12.5714    0.7074 H   0  0  0  0  0  0  0  0  0  0  0  0
    2.2499  -15.0072    1.0010 H   0  0  0  0  0  0  0  0  0  0  0  0
    2.5094  -14.5289    5.2329 H   0  0  0  0  0  0  0  0  0  0  0  0
    1.0589   -0.3624   -1.5626 H   0  0  0  0  0  0  0  0  0  0  0  0
  1  2  1  0  0  0  0
  1 31  1  0  0  0  0
  1 32  1  0  0  0  0
  1 33  1  0  0  0  0
  2  7  1  0  0  0  0
  2  3  1  0  0  0  0
  2 55  1  6  0  0  0
  3  4  1  0  0  0  0
  3 34  1  0  0  0  0
  3 35  1  0  0  0  0
  4  5  1  0  0  0  0
  4 36  1  0  0  0  0
  4 37  1  0  0  0  0
  5  6  1  0  0  0  0
  5  8  1  0  0  0  0
  5 38  1  1  0  0  0
  6  7  1  0  0  0  0
  6 39  1  0  0  0  0
  6 40  1  0  0  0  0
  7 41  1  0  0  0  0
  7 42  1  0  0  0  0
  8  9  1  0  0  0  0
  8 43  1  0  0  0  0
  8 44  1  0  0  0  0
  9 10  1  0  0  0  0
 10 15  2  0  0  0  0
 10 11  1  0  0  0  0
 11 12  2  0  0  0  0
 11 45  1  0  0  0  0
 12 21  1  0  0  0  0
 12 13  1  0  0  0  0
 13 14  2  0  0  0  0
 13 18  1  0  0  0  0
 14 15  1  0  0  0  0
 14 46  1  0  0  0  0
 15 16  1  0  0  0  0
 16 17  1  0  0  0  0
 17 47  1  0  0  0  0
 17 48  1  0  0  0  0
 17 49  1  0  0  0  0
 18 19  2  0  0  0  0
 18 22  1  0  0  0  0
 19 20  1  0  0  0  0
 20 21  2  0  0  0  0
 20 50  1  0  0  0  0
 22 23  1  0  0  0  0
 22 51  1  0  0  0  0
 23 28  2  0  0  0  0
 23 24  1  0  0  0  0
 24 25  2  0  0  0  0
 24 52  1  0  0  0  0
 25 26  1  0  0  0  0
 25 53  1  0  0  0  0
 26 27  2  0  0  0  0
 26 30  1  0  0  0  0
 27 28  1  0  0  0  0
 27 54  1  0  0  0  0
 28 29  1  0  0  0  0
M  CHG  1   2   1
M  END
$$$$
