ZINC04097383
 OpenBabel08292219463D

101106  0  0  1  0  0  0  0  0999 V2000
   -0.6421    4.0238    6.7037 C   0  0  0  0  0  0  0  0  0  0  0  0
    0.1833    3.7961    5.4636 C   0  0  0  0  0  0  0  0  0  0  0  0
    1.2940    3.3290    5.5545 O   0  0  0  0  0  0  0  0  0  0  0  0
   -0.3153    4.1121    4.2581 O   0  0  0  0  0  0  0  0  0  0  0  0
    0.5355    3.8658    3.1076 C   0  0  1  0  0  0  0  0  0  0  0  0
    1.5807    3.9656    3.4003 H   0  0  0  0  0  0  0  0  0  0  0  0
    0.2858    2.4506    2.5819 C   0  0  0  0  0  0  0  0  0  0  0  0
   -1.1814    2.3107    2.1723 C   0  0  2  0  0  0  0  0  0  0  0  0
   -1.8187    2.4957    3.0370 H   0  0  0  0  0  0  0  0  0  0  0  0
   -1.4312    0.8950    1.6492 C   0  0  0  0  0  0  0  0  0  0  0  0
   -2.8987    0.7532    1.2399 C   0  0  0  0  0  0  0  0  0  0  0  0
   -3.2206    1.7649    0.1393 C   0  0  2  0  0  0  0  0  0  0  0  0
   -2.5991    1.5686   -0.7344 H   0  0  0  0  0  0  0  0  0  0  0  0
   -2.9733    3.1852    0.6704 C   0  0  1  0  0  0  0  0  0  0  0  0
   -3.5970    3.3457    1.5497 H   0  0  0  0  0  0  0  0  0  0  0  0
   -1.5054    3.3260    1.0743 C   0  0  1  0  0  0  0  0  0  0  0  0
   -1.2532    4.7413    1.5986 C   0  0  0  0  0  0  0  0  0  0  0  0
    0.2142    4.8807    2.0087 C   0  0  2  0  0  0  0  0  0  0  0  0
    0.3928    5.8891    2.3820 H   0  0  0  0  0  0  0  0  0  0  0  0
    1.0740    4.6303    0.8443 N   0  3  0  0  0  0  0  0  0  0  0  0
    0.4722    5.2413   -0.3469 C   0  0  0  0  0  0  0  0  0  0  0  0
    1.4031    5.0534   -1.5468 C   0  0  0  0  0  0  0  0  0  0  0  0
    1.6160    3.5567   -1.7912 C   0  0  0  0  0  0  0  0  0  0  0  0
    2.1746    2.9159   -0.5174 C   0  0  0  0  0  0  0  0  0  0  0  0
    1.2151    3.1830    0.6443 C   0  0  0  0  0  0  0  0  0  0  0  0
    2.3979    5.2221    1.0787 C   0  0  0  0  0  0  0  0  0  0  0  0
   -0.6139    3.0654   -0.1415 C   0  0  0  0  0  0  0  0  0  0  0  0
   -3.3334    4.2415   -0.3686 C   0  0  0  0  0  0  0  0  0  0  0  0
   -4.7807    4.0728   -0.8605 C   0  0  0  0  0  0  0  0  0  0  0  0
   -4.9073    2.6691   -1.4193 C   0  0  1  0  0  0  0  0  0  0  0  0
   -4.6860    1.6788   -0.2442 C   0  0  1  0  0  0  0  0  0  0  0  0
   -5.3160    1.9331    0.6082 H   0  0  0  0  0  0  0  0  0  0  0  0
   -5.1393    0.3537   -0.8656 C   0  0  0  0  0  0  0  0  0  0  0  0
   -6.4138    0.7586   -1.6557 C   0  0  1  0  0  0  0  0  0  0  0  0
   -7.3023    0.5768   -1.0511 H   0  0  0  0  0  0  0  0  0  0  0  0
   -6.2773    2.2716   -1.9588 C   0  0  2  0  0  0  0  0  0  0  0  0
   -7.0611    2.8312   -1.4484 H   0  0  0  0  0  0  0  0  0  0  0  0
   -6.3415    2.5057   -3.3904 O   0  0  0  0  0  0  0  0  0  0  0  0
   -7.4060    3.1818   -3.8501 C   0  0  0  0  0  0  0  0  0  0  0  0
   -8.2101    3.6424   -3.0748 O   0  0  0  0  0  0  0  0  0  0  0  0
   -7.5982    3.3665   -5.3334 C   0  0  0  0  0  0  0  0  0  0  0  0
   -6.4930   -0.0029   -2.9095 N   0  3  0  0  0  0  0  0  0  0  0  0
   -5.2979    0.2642   -3.7187 C   0  0  0  0  0  0  0  0  0  0  0  0
   -5.3364   -0.5883   -4.9889 C   0  0  0  0  0  0  0  0  0  0  0  0
   -6.5899   -0.2366   -5.7953 C   0  0  0  0  0  0  0  0  0  0  0  0
   -7.8262   -0.4482   -4.9167 C   0  0  0  0  0  0  0  0  0  0  0  0
   -7.6954    0.3991   -3.6492 C   0  0  0  0  0  0  0  0  0  0  0  0
   -6.5641   -1.4382   -2.6052 C   0  0  0  0  0  0  0  0  0  0  0  0
   -3.8424    2.4426   -2.4943 C   0  0  0  0  0  0  0  0  0  0  0  0
   -1.5626    3.4435    6.6391 H   0  0  0  0  0  0  0  0  0  0  0  0
   -0.0753    3.7096    7.5802 H   0  0  0  0  0  0  0  0  0  0  0  0
   -0.8855    5.0828    6.7888 H   0  0  0  0  0  0  0  0  0  0  0  0
    0.5153    1.7267    3.3639 H   0  0  0  0  0  0  0  0  0  0  0  0
    0.9236    2.2662    1.7175 H   0  0  0  0  0  0  0  0  0  0  0  0
   -0.7934    0.7093    0.7850 H   0  0  0  0  0  0  0  0  0  0  0  0
   -1.2011    0.1726    2.4323 H   0  0  0  0  0  0  0  0  0  0  0  0
   -3.0765   -0.2562    0.8689 H   0  0  0  0  0  0  0  0  0  0  0  0
   -3.5366    0.9406    2.1036 H   0  0  0  0  0  0  0  0  0  0  0  0
   -1.4801    5.4645    0.8153 H   0  0  0  0  0  0  0  0  0  0  0  0
   -1.8926    4.9283    2.4614 H   0  0  0  0  0  0  0  0  0  0  0  0
   -0.4866    4.7658   -0.5536 H   0  0  0  0  0  0  0  0  0  0  0  0
    0.3183    6.3058   -0.1703 H   0  0  0  0  0  0  0  0  0  0  0  0
    2.3622    5.5287   -1.3413 H   0  0  0  0  0  0  0  0  0  0  0  0
    0.9543    5.5063   -2.4309 H   0  0  0  0  0  0  0  0  0  0  0  0
    2.3230    3.4179   -2.6092 H   0  0  0  0  0  0  0  0  0  0  0  0
    0.6647    3.0902   -2.0470 H   0  0  0  0  0  0  0  0  0  0  0  0
    3.1497    3.3469   -0.2905 H   0  0  0  0  0  0  0  0  0  0  0  0
    2.2766    1.8408   -0.6654 H   0  0  0  0  0  0  0  0  0  0  0  0
    1.6096    2.7279    1.5528 H   0  0  0  0  0  0  0  0  0  0  0  0
    0.2405    2.7515    0.4160 H   0  0  0  0  0  0  0  0  0  0  0  0
    2.8453    4.7720    1.9649 H   0  0  0  0  0  0  0  0  0  0  0  0
    3.0368    5.0368    0.2152 H   0  0  0  0  0  0  0  0  0  0  0  0
    2.2940    6.2965    1.2299 H   0  0  0  0  0  0  0  0  0  0  0  0
   -0.3079    2.0193   -0.1500 H   0  0  0  0  0  0  0  0  0  0  0  0
    0.2693    3.7019   -0.0875 H   0  0  0  0  0  0  0  0  0  0  0  0
   -1.1680    3.2893   -1.0530 H   0  0  0  0  0  0  0  0  0  0  0  0
   -2.6555    4.1526   -1.2175 H   0  0  0  0  0  0  0  0  0  0  0  0
   -3.2207    5.2305    0.0756 H   0  0  0  0  0  0  0  0  0  0  0  0
   -4.9946    4.8031   -1.6409 H   0  0  0  0  0  0  0  0  0  0  0  0
   -5.4736    4.2048   -0.0296 H   0  0  0  0  0  0  0  0  0  0  0  0
   -4.3764   -0.0377   -1.5386 H   0  0  0  0  0  0  0  0  0  0  0  0
   -5.3809   -0.3733   -0.0903 H   0  0  0  0  0  0  0  0  0  0  0  0
   -6.7791    2.8860   -5.8685 H   0  0  0  0  0  0  0  0  0  0  0  0
   -8.5436    2.9163   -5.6361 H   0  0  0  0  0  0  0  0  0  0  0  0
   -7.6109    4.4308   -5.5684 H   0  0  0  0  0  0  0  0  0  0  0  0
   -5.2720    1.3194   -3.9905 H   0  0  0  0  0  0  0  0  0  0  0  0
   -4.4065    0.0164   -3.1423 H   0  0  0  0  0  0  0  0  0  0  0  0
   -5.3620   -1.6438   -4.7182 H   0  0  0  0  0  0  0  0  0  0  0  0
   -4.4491   -0.3873   -5.5892 H   0  0  0  0  0  0  0  0  0  0  0  0
   -6.6516   -0.8807   -6.6725 H   0  0  0  0  0  0  0  0  0  0  0  0
   -6.5403    0.8058   -6.1099 H   0  0  0  0  0  0  0  0  0  0  0  0
   -7.9035   -1.5008   -4.6444 H   0  0  0  0  0  0  0  0  0  0  0  0
   -8.7185   -0.1470   -5.4654 H   0  0  0  0  0  0  0  0  0  0  0  0
   -8.5741    0.2510   -3.0214 H   0  0  0  0  0  0  0  0  0  0  0  0
   -7.6182    1.4513   -3.9230 H   0  0  0  0  0  0  0  0  0  0  0  0
   -7.3986   -1.6255   -1.9294 H   0  0  0  0  0  0  0  0  0  0  0  0
   -6.7115   -1.9985   -3.5285 H   0  0  0  0  0  0  0  0  0  0  0  0
   -5.6349   -1.7558   -2.1319 H   0  0  0  0  0  0  0  0  0  0  0  0
   -3.9630    1.4469   -2.9211 H   0  0  0  0  0  0  0  0  0  0  0  0
   -3.9538    3.1904   -3.2794 H   0  0  0  0  0  0  0  0  0  0  0  0
   -2.8516    2.5290   -2.0481 H   0  0  0  0  0  0  0  0  0  0  0  0
  1  2  1  0  0  0  0
  1 50  1  0  0  0  0
  1 51  1  0  0  0  0
  1 52  1  0  0  0  0
  2  3  2  0  0  0  0
  2  4  1  0  0  0  0
  4  5  1  0  0  0  0
  5  6  1  1  0  0  0
  5 18  1  0  0  0  0
  5  7  1  0  0  0  0
  7  8  1  0  0  0  0
  7 53  1  0  0  0  0
  7 54  1  0  0  0  0
  8  9  1  1  0  0  0
  8 16  1  0  0  0  0
  8 10  1  0  0  0  0
 10 11  1  0  0  0  0
 10 55  1  0  0  0  0
 10 56  1  0  0  0  0
 11 12  1  0  0  0  0
 11 57  1  0  0  0  0
 11 58  1  0  0  0  0
 12 13  1  6  0  0  0
 12 31  1  0  0  0  0
 12 14  1  0  0  0  0
 14 15  1  1  0  0  0
 14 16  1  0  0  0  0
 14 28  1  0  0  0  0
 16 17  1  0  0  0  0
 16 27  1  6  0  0  0
 17 18  1  0  0  0  0
 17 59  1  0  0  0  0
 17 60  1  0  0  0  0
 18 19  1  1  0  0  0
 18 20  1  0  0  0  0
 20 25  1  0  0  0  0
 20 21  1  0  0  0  0
 20 26  1  0  0  0  0
 21 22  1  0  0  0  0
 21 61  1  0  0  0  0
 21 62  1  0  0  0  0
 22 23  1  0  0  0  0
 22 63  1  0  0  0  0
 22 64  1  0  0  0  0
 23 24  1  0  0  0  0
 23 65  1  0  0  0  0
 23 66  1  0  0  0  0
 24 25  1  0  0  0  0
 24 67  1  0  0  0  0
 24 68  1  0  0  0  0
 25 69  1  0  0  0  0
 25 70  1  0  0  0  0
 26 71  1  0  0  0  0
 26 72  1  0  0  0  0
 26 73  1  0  0  0  0
 27 74  1  0  0  0  0
 27 75  1  0  0  0  0
 27 76  1  0  0  0  0
 28 29  1  0  0  0  0
 28 77  1  0  0  0  0
 28 78  1  0  0  0  0
 29 30  1  0  0  0  0
 29 79  1  0  0  0  0
 29 80  1  0  0  0  0
 30 36  1  0  0  0  0
 30 31  1  0  0  0  0
 30 49  1  6  0  0  0
 31 32  1  1  0  0  0
 31 33  1  0  0  0  0
 33 34  1  0  0  0  0
 33 81  1  0  0  0  0
 33 82  1  0  0  0  0
 34 35  1  1  0  0  0
 34 36  1  0  0  0  0
 34 42  1  0  0  0  0
 36 37  1  1  0  0  0
 36 38  1  0  0  0  0
 38 39  1  0  0  0  0
 39 40  2  0  0  0  0
 39 41  1  0  0  0  0
 41 83  1  0  0  0  0
 41 84  1  0  0  0  0
 41 85  1  0  0  0  0
 42 47  1  0  0  0  0
 42 43  1  0  0  0  0
 42 48  1  0  0  0  0
 43 44  1  0  0  0  0
 43 86  1  0  0  0  0
 43 87  1  0  0  0  0
 44 45  1  0  0  0  0
 44 88  1  0  0  0  0
 44 89  1  0  0  0  0
 45 46  1  0  0  0  0
 45 90  1  0  0  0  0
 45 91  1  0  0  0  0
 46 47  1  0  0  0  0
 46 92  1  0  0  0  0
 46 93  1  0  0  0  0
 47 94  1  0  0  0  0
 47 95  1  0  0  0  0
 48 96  1  0  0  0  0
 48 97  1  0  0  0  0
 48 98  1  0  0  0  0
 49 99  1  0  0  0  0
 49100  1  0  0  0  0
 49101  1  0  0  0  0
M  CHG  2  20   1  42   1
M  END
$$$$
