ZINC85540244
 OpenBabel08292219463D

 54 55  0  0  1  0  0  0  0  0999 V2000
   -0.7281    1.4915   -0.9722 C   0  0  0  0  0  0  0  0  0  0  0  0
   -0.6709   -0.0132   -1.0334 C   0  0  0  0  0  0  0  0  0  0  0  0
   -0.2027   -0.5631   -2.0079 O   0  0  0  0  0  0  0  0  0  0  0  0
   -1.1399   -0.7479   -0.0055 N   0  0  0  0  0  0  0  0  0  0  0  0
   -1.1930   -2.1431   -0.1090 C   0  0  0  0  0  0  0  0  0  0  0  0
   -0.0496   -2.8575   -0.4344 C   0  0  0  0  0  0  0  0  0  0  0  0
   -0.1034   -4.2485   -0.5369 C   0  0  0  0  0  0  0  0  0  0  0  0
   -1.3091   -4.9154   -0.3112 C   0  0  0  0  0  0  0  0  0  0  0  0
   -2.4479   -4.1943    0.0137 C   0  0  0  0  0  0  0  0  0  0  0  0
   -2.3891   -2.8105    0.1200 C   0  0  0  0  0  0  0  0  0  0  0  0
   -4.1110   -1.7269    0.6197 I   0  0  0  0  0  0  0  0  0  0  0  0
   -3.6575   -4.8621    0.2403 N   0  0  0  0  0  0  0  0  0  0  0  0
   -4.0034   -5.3134    1.5904 C   0  0  0  0  0  0  0  0  0  0  0  0
   -4.5036   -5.0899   -0.7838 C   0  0  0  0  0  0  0  0  0  0  0  0
   -5.5075   -5.7470   -0.6063 O   0  0  0  0  0  0  0  0  0  0  0  0
   -4.2023   -4.5280   -2.1493 C   0  0  0  0  0  0  0  0  0  0  0  0
   -1.3976   -7.0030   -0.4639 I   0  0  0  0  0  0  0  0  0  0  0  0
    1.1124   -5.0133   -0.8839 C   0  0  0  0  0  0  0  0  0  0  0  0
    1.8510   -5.4124   -0.0047 O   0  0  0  0  0  0  0  0  0  0  0  0
    1.4025   -5.2683   -2.1751 N   0  0  0  0  0  0  0  0  0  0  0  0
    2.6079   -6.0266   -2.5191 C   0  0  2  0  0  0  0  0  0  0  0  0
    3.4054   -5.7807   -1.8179 H   0  0  0  0  0  0  0  0  0  0  0  0
    3.0489   -5.6690   -3.9418 C   0  0  2  0  0  0  0  0  0  0  0  0
    2.2333   -5.8674   -4.6371 H   0  0  0  0  0  0  0  0  0  0  0  0
    4.2627   -6.5241   -4.3183 C   0  0  1  0  0  0  0  0  0  0  0  0
    5.0941   -6.2893   -3.6536 H   0  0  0  0  0  0  0  0  0  0  0  0
    3.8977   -8.0042   -4.1779 C   0  0  2  0  0  0  0  0  0  0  0  0
    3.0934   -8.2477   -4.8721 H   0  0  0  0  0  0  0  0  0  0  0  0
    3.4670   -8.2624   -2.8400 O   0  0  0  0  0  0  0  0  0  0  0  0
    2.3073   -7.5259   -2.4467 C   0  0  2  0  0  0  0  0  0  0  0  0
    2.0347   -7.7931   -1.4256 H   0  0  0  0  0  0  0  0  0  0  0  0
    1.2251   -7.8380   -3.3262 O   0  0  0  0  0  0  0  0  0  0  0  0
    5.1229   -8.8642   -4.4947 C   0  0  0  0  0  0  0  0  0  0  0  0
    4.7534  -10.2445   -4.4776 O   0  0  0  0  0  0  0  0  0  0  0  0
    4.6394   -6.2500   -5.6693 O   0  0  0  0  0  0  0  0  0  0  0  0
    3.4005   -4.2851   -3.9997 O   0  0  0  0  0  0  0  0  0  0  0  0
    1.7559   -1.8500   -0.7724 I   0  0  0  0  0  0  0  0  0  0  0  0
   -0.3064    1.9086   -1.8866 H   0  0  0  0  0  0  0  0  0  0  0  0
   -1.7651    1.8118   -0.8711 H   0  0  0  0  0  0  0  0  0  0  0  0
   -0.1543    1.8422   -0.1144 H   0  0  0  0  0  0  0  0  0  0  0  0
   -1.4407   -0.3099    0.8061 H   0  0  0  0  0  0  0  0  0  0  0  0
   -4.6312   -4.5650    2.0740 H   0  0  0  0  0  0  0  0  0  0  0  0
   -4.5444   -6.2577    1.5305 H   0  0  0  0  0  0  0  0  0  0  0  0
   -3.0918   -5.4532    2.1715 H   0  0  0  0  0  0  0  0  0  0  0  0
   -3.6816   -5.2784   -2.7442 H   0  0  0  0  0  0  0  0  0  0  0  0
   -5.1347   -4.2553   -2.6437 H   0  0  0  0  0  0  0  0  0  0  0  0
   -3.5728   -3.6440   -2.0477 H   0  0  0  0  0  0  0  0  0  0  0  0
    0.8132   -4.9499   -2.8766 H   0  0  0  0  0  0  0  0  0  0  0  0
    0.9798   -8.7734   -3.3316 H   0  0  0  0  0  0  0  0  0  0  0  0
    5.5051   -8.6026   -5.4814 H   0  0  0  0  0  0  0  0  0  0  0  0
    5.8954   -8.6856   -3.7468 H   0  0  0  0  0  0  0  0  0  0  0  0
    5.4827  -10.8493   -4.6706 H   0  0  0  0  0  0  0  0  0  0  0  0
    5.4032   -6.7579   -5.9754 H   0  0  0  0  0  0  0  0  0  0  0  0
    3.6900   -3.9891   -4.8735 H   0  0  0  0  0  0  0  0  0  0  0  0
  1  2  1  0  0  0  0
  1 38  1  0  0  0  0
  1 39  1  0  0  0  0
  1 40  1  0  0  0  0
  2  3  2  0  0  0  0
  2  4  1  0  0  0  0
  4  5  1  0  0  0  0
  4 41  1  0  0  0  0
  5 10  2  0  0  0  0
  5  6  1  0  0  0  0
  6  7  2  0  0  0  0
  6 37  1  0  0  0  0
  7  8  1  0  0  0  0
  7 18  1  0  0  0  0
  8  9  2  0  0  0  0
  8 17  1  0  0  0  0
  9 10  1  0  0  0  0
  9 12  1  0  0  0  0
 10 11  1  0  0  0  0
 12 13  1  0  0  0  0
 12 14  1  0  0  0  0
 13 42  1  0  0  0  0
 13 43  1  0  0  0  0
 13 44  1  0  0  0  0
 14 15  2  0  0  0  0
 14 16  1  0  0  0  0
 16 45  1  0  0  0  0
 16 46  1  0  0  0  0
 16 47  1  0  0  0  0
 18 19  2  0  0  0  0
 18 20  1  0  0  0  0
 20 21  1  0  0  0  0
 20 48  1  0  0  0  0
 21 22  1  1  0  0  0
 21 30  1  0  0  0  0
 21 23  1  0  0  0  0
 23 24  1  6  0  0  0
 23 25  1  0  0  0  0
 23 36  1  0  0  0  0
 25 26  1  1  0  0  0
 25 27  1  0  0  0  0
 25 35  1  0  0  0  0
 27 28  1  6  0  0  0
 27 29  1  0  0  0  0
 27 33  1  0  0  0  0
 29 30  1  0  0  0  0
 30 31  1  1  0  0  0
 30 32  1  0  0  0  0
 32 49  1  0  0  0  0
 33 34  1  0  0  0  0
 33 50  1  0  0  0  0
 33 51  1  0  0  0  0
 34 52  1  0  0  0  0
 35 53  1  0  0  0  0
 36 54  1  0  0  0  0
M  END
$$$$
