ZINC00000449
 OpenBabel08292219463D

 51 53  0  0  1  0  0  0  0  0999 V2000
   -0.0469   -0.7810   -0.1402 C   0  0  0  0  0  0  0  0  0  0  0  0
    0.2497   -2.1475    0.3100 N   0  3  0  0  0  0  0  0  0  0  0  0
    1.0529   -2.8333   -0.7093 C   0  0  0  0  0  0  0  0  0  0  0  0
    2.3285   -2.0334   -0.9822 C   0  0  0  0  0  0  0  0  0  0  0  0
    3.1373   -1.9151    0.3128 C   0  0  0  0  0  0  0  0  0  0  0  0
    2.2644   -1.2656    1.3906 C   0  0  1  0  0  0  0  0  0  0  0  0
    1.9991   -0.2541    1.0833 H   0  0  0  0  0  0  0  0  0  0  0  0
    0.9912   -2.0940    1.5756 C   0  0  0  0  0  0  0  0  0  0  0  0
    2.9859   -1.2162    2.6231 O   0  0  0  0  0  0  0  0  0  0  0  0
    3.7268   -0.1205    2.8520 C   0  0  0  0  0  0  0  0  0  0  0  0
    3.7616    0.7671    2.0330 O   0  0  0  0  0  0  0  0  0  0  0  0
    4.5151    0.0024    4.1304 C   0  0  0  0  0  0  0  0  0  0  0  0
    5.6802    0.9336    3.9146 C   0  0  0  0  0  0  0  0  0  0  0  0
    5.4557    2.2718    3.6506 C   0  0  0  0  0  0  0  0  0  0  0  0
    6.5243    3.1260    3.4526 C   0  0  0  0  0  0  0  0  0  0  0  0
    7.8175    2.6421    3.5191 C   0  0  0  0  0  0  0  0  0  0  0  0
    8.0420    1.3041    3.7840 C   0  0  0  0  0  0  0  0  0  0  0  0
    6.9735    0.4508    3.9862 C   0  0  0  0  0  0  0  0  0  0  0  0
    3.6274    0.5520    5.2172 C   0  0  0  0  0  0  0  0  0  0  0  0
    2.7247    1.5585    4.9292 C   0  0  0  0  0  0  0  0  0  0  0  0
    1.9104    2.0626    5.9261 C   0  0  0  0  0  0  0  0  0  0  0  0
    1.9985    1.5599    7.2107 C   0  0  0  0  0  0  0  0  0  0  0  0
    2.9005    0.5527    7.4985 C   0  0  0  0  0  0  0  0  0  0  0  0
    3.7118    0.0456    6.5007 C   0  0  0  0  0  0  0  0  0  0  0  0
    4.9998   -1.2852    4.5169 O   0  0  0  0  0  0  0  0  0  0  0  0
   -1.0082   -2.8788    0.5117 C   0  0  0  0  0  0  0  0  0  0  0  0
    0.8858   -0.2365   -0.2876 H   0  0  0  0  0  0  0  0  0  0  0  0
   -0.5976   -0.8195   -1.0800 H   0  0  0  0  0  0  0  0  0  0  0  0
   -0.6489   -0.2729    0.6131 H   0  0  0  0  0  0  0  0  0  0  0  0
    1.3181   -3.8288   -0.3531 H   0  0  0  0  0  0  0  0  0  0  0  0
    0.4749   -2.9196   -1.6293 H   0  0  0  0  0  0  0  0  0  0  0  0
    2.9244   -2.5452   -1.7380 H   0  0  0  0  0  0  0  0  0  0  0  0
    2.0645   -1.0378   -1.3388 H   0  0  0  0  0  0  0  0  0  0  0  0
    3.4451   -2.9075    0.6422 H   0  0  0  0  0  0  0  0  0  0  0  0
    4.0187   -1.2984    0.1371 H   0  0  0  0  0  0  0  0  0  0  0  0
    0.3676   -1.6345    2.3425 H   0  0  0  0  0  0  0  0  0  0  0  0
    1.2577   -3.1052    1.8831 H   0  0  0  0  0  0  0  0  0  0  0  0
    4.4453    2.6499    3.5986 H   0  0  0  0  0  0  0  0  0  0  0  0
    6.3489    4.1714    3.2456 H   0  0  0  0  0  0  0  0  0  0  0  0
    8.6524    3.3094    3.3637 H   0  0  0  0  0  0  0  0  0  0  0  0
    9.0523    0.9260    3.8356 H   0  0  0  0  0  0  0  0  0  0  0  0
    7.1490   -0.5939    4.1969 H   0  0  0  0  0  0  0  0  0  0  0  0
    2.6559    1.9513    3.9255 H   0  0  0  0  0  0  0  0  0  0  0  0
    1.2057    2.8495    5.7013 H   0  0  0  0  0  0  0  0  0  0  0  0
    1.3628    1.9542    7.9897 H   0  0  0  0  0  0  0  0  0  0  0  0
    2.9696    0.1601    8.5022 H   0  0  0  0  0  0  0  0  0  0  0  0
    4.4140   -0.7439    6.7246 H   0  0  0  0  0  0  0  0  0  0  0  0
    5.5792   -1.6998    3.8631 H   0  0  0  0  0  0  0  0  0  0  0  0
   -1.5610   -2.9169   -0.4270 H   0  0  0  0  0  0  0  0  0  0  0  0
   -0.7893   -3.8930    0.8458 H   0  0  0  0  0  0  0  0  0  0  0  0
   -1.6078   -2.3693    1.2660 H   0  0  0  0  0  0  0  0  0  0  0  0
  1  2  1  0  0  0  0
  1 27  1  0  0  0  0
  1 28  1  0  0  0  0
  1 29  1  0  0  0  0
  2  8  1  0  0  0  0
  2  3  1  0  0  0  0
  2 26  1  0  0  0  0
  3  4  1  0  0  0  0
  3 30  1  0  0  0  0
  3 31  1  0  0  0  0
  4  5  1  0  0  0  0
  4 32  1  0  0  0  0
  4 33  1  0  0  0  0
  5  6  1  0  0  0  0
  5 34  1  0  0  0  0
  5 35  1  0  0  0  0
  6  7  1  6  0  0  0
  6  8  1  0  0  0  0
  6  9  1  0  0  0  0
  8 36  1  0  0  0  0
  8 37  1  0  0  0  0
  9 10  1  0  0  0  0
 10 11  2  0  0  0  0
 10 12  1  0  0  0  0
 12 13  1  0  0  0  0
 12 19  1  0  0  0  0
 12 25  1  0  0  0  0
 13 18  2  0  0  0  0
 13 14  1  0  0  0  0
 14 15  2  0  0  0  0
 14 38  1  0  0  0  0
 15 16  1  0  0  0  0
 15 39  1  0  0  0  0
 16 17  2  0  0  0  0
 16 40  1  0  0  0  0
 17 18  1  0  0  0  0
 17 41  1  0  0  0  0
 18 42  1  0  0  0  0
 19 24  2  0  0  0  0
 19 20  1  0  0  0  0
 20 21  2  0  0  0  0
 20 43  1  0  0  0  0
 21 22  1  0  0  0  0
 21 44  1  0  0  0  0
 22 23  2  0  0  0  0
 22 45  1  0  0  0  0
 23 24  1  0  0  0  0
 23 46  1  0  0  0  0
 24 47  1  0  0  0  0
 25 48  1  0  0  0  0
 26 49  1  0  0  0  0
 26 50  1  0  0  0  0
 26 51  1  0  0  0  0
M  CHG  1   2   1
M  END
$$$$
