ZINC08214629
 OpenBabel08292219463D

103103  0  0  0  0  0  0  0  0999 V2000
   -0.0187    1.5258    0.0104 C   0  0  0  0  0  0  0  0  0  0  0  0
    0.0021   -0.0041    0.0020 C   0  0  0  0  0  0  0  0  0  0  0  0
   -1.4333   -0.5336    0.0129 C   0  0  0  0  0  0  0  0  0  0  0  0
   -1.4126   -2.0635    0.0045 C   0  0  0  0  0  0  0  0  0  0  0  0
   -2.8479   -2.5931    0.0153 C   0  0  0  0  0  0  0  0  0  0  0  0
   -2.8272   -4.1229    0.0069 C   0  0  0  0  0  0  0  0  0  0  0  0
   -4.2626   -4.6525    0.0178 C   0  0  0  0  0  0  0  0  0  0  0  0
   -4.2418   -6.1823    0.0094 C   0  0  0  0  0  0  0  0  0  0  0  0
   -5.6772   -6.7119    0.0202 C   0  0  0  0  0  0  0  0  0  0  0  0
   -5.6568   -8.2187    0.0119 C   0  0  0  0  0  0  0  0  0  0  0  0
   -5.6532   -8.9023   -1.1899 C   0  0  0  0  0  0  0  0  0  0  0  0
   -5.6349  -10.2836   -1.2002 C   0  0  0  0  0  0  0  0  0  0  0  0
   -5.6197  -10.9849   -0.0033 C   0  0  0  0  0  0  0  0  0  0  0  0
   -5.6229  -10.2966    1.2013 C   0  0  0  0  0  0  0  0  0  0  0  0
   -5.6360   -8.9153    1.2062 C   0  0  0  0  0  0  0  0  0  0  0  0
   -5.6022  -12.3437   -0.0108 O   0  0  0  0  0  0  0  0  0  0  0  0
   -5.5872  -12.9993    1.2589 C   0  0  0  0  0  0  0  0  0  0  0  0
   -5.5687  -14.5149    1.0501 C   0  0  0  0  0  0  0  0  0  0  0  0
   -4.3459  -14.8933    0.4148 O   0  0  0  0  0  0  0  0  0  0  0  0
   -4.2267  -16.2966    0.1726 C   0  0  0  0  0  0  0  0  0  0  0  0
   -2.8866  -16.5848   -0.5069 C   0  0  0  0  0  0  0  0  0  0  0  0
   -1.8199  -16.2637    0.3881 O   0  0  0  0  0  0  0  0  0  0  0  0
   -0.5177  -16.4977   -0.1520 C   0  0  0  0  0  0  0  0  0  0  0  0
    0.5405  -16.1212    0.8870 C   0  0  0  0  0  0  0  0  0  0  0  0
    0.4353  -16.9955    2.0124 O   0  0  0  0  0  0  0  0  0  0  0  0
    1.3842  -16.7280    3.0469 C   0  0  0  0  0  0  0  0  0  0  0  0
    1.1801  -17.7189    4.1947 C   0  0  0  0  0  0  0  0  0  0  0  0
    1.4777  -19.0409    3.7414 O   0  0  0  0  0  0  0  0  0  0  0  0
    1.3180  -20.0483    4.7422 C   0  0  0  0  0  0  0  0  0  0  0  0
    1.6617  -21.4160    4.1486 C   0  0  0  0  0  0  0  0  0  0  0  0
    3.0464  -21.4484    3.7972 O   0  0  0  0  0  0  0  0  0  0  0  0
    3.4734  -22.6888    3.2306 C   0  0  0  0  0  0  0  0  0  0  0  0
    4.9640  -22.6098    2.8948 C   0  0  0  0  0  0  0  0  0  0  0  0
    5.7170  -22.4660    4.1008 O   0  0  0  0  0  0  0  0  0  0  0  0
    7.1291  -22.3825    3.8979 C   0  0  0  0  0  0  0  0  0  0  0  0
    7.8304  -22.2312    5.2492 C   0  0  0  0  0  0  0  0  0  0  0  0
    7.6293  -23.4142    6.0253 O   0  0  0  0  0  0  0  0  0  0  0  0
    8.2472  -23.3764    7.3132 C   0  0  0  0  0  0  0  0  0  0  0  0
    7.9679  -24.6870    8.0515 C   0  0  0  0  0  0  0  0  0  0  0  0
    8.5994  -25.7669    7.3608 O   0  0  0  0  0  0  0  0  0  0  0  0
    8.3995  -27.0434    7.9711 C   0  0  0  0  0  0  0  0  0  0  0  0
    9.1159  -28.1185    7.1513 C   0  0  0  0  0  0  0  0  0  0  0  0
   10.5262  -27.8932    7.1994 O   0  0  0  0  0  0  0  0  0  0  0  0
    1.0039    1.9031    0.0027 H   0  0  0  0  0  0  0  0  0  0  0  0
   -0.5459    1.8868   -0.8726 H   0  0  0  0  0  0  0  0  0  0  0  0
   -0.5289    1.8773    0.9072 H   0  0  0  0  0  0  0  0  0  0  0  0
    0.5123   -0.3556   -0.8948 H   0  0  0  0  0  0  0  0  0  0  0  0
    0.5293   -0.3651    0.8851 H   0  0  0  0  0  0  0  0  0  0  0  0
   -1.9435   -0.1821    0.9097 H   0  0  0  0  0  0  0  0  0  0  0  0
   -1.9605   -0.1726   -0.8702 H   0  0  0  0  0  0  0  0  0  0  0  0
   -0.9024   -2.4150   -0.8923 H   0  0  0  0  0  0  0  0  0  0  0  0
   -0.8854   -2.4246    0.8875 H   0  0  0  0  0  0  0  0  0  0  0  0
   -3.3581   -2.2415    0.9121 H   0  0  0  0  0  0  0  0  0  0  0  0
   -3.3751   -2.2320   -0.8677 H   0  0  0  0  0  0  0  0  0  0  0  0
   -2.3170   -4.4744   -0.8899 H   0  0  0  0  0  0  0  0  0  0  0  0
   -2.3000   -4.4840    0.8900 H   0  0  0  0  0  0  0  0  0  0  0  0
   -4.7728   -4.3010    0.9146 H   0  0  0  0  0  0  0  0  0  0  0  0
   -4.7898   -4.2914   -0.8653 H   0  0  0  0  0  0  0  0  0  0  0  0
   -3.7316   -6.5338   -0.8874 H   0  0  0  0  0  0  0  0  0  0  0  0
   -3.7146   -6.5434    0.8924 H   0  0  0  0  0  0  0  0  0  0  0  0
   -6.1874   -6.3604    0.9170 H   0  0  0  0  0  0  0  0  0  0  0  0
   -6.2044   -6.3508   -0.8628 H   0  0  0  0  0  0  0  0  0  0  0  0
   -5.6650   -8.3559   -2.1214 H   0  0  0  0  0  0  0  0  0  0  0  0
   -5.6328  -10.8171   -2.1392 H   0  0  0  0  0  0  0  0  0  0  0  0
   -5.6112  -10.8403    2.1344 H   0  0  0  0  0  0  0  0  0  0  0  0
   -5.6340   -8.3790    2.1436 H   0  0  0  0  0  0  0  0  0  0  0  0
   -4.6982  -12.6980    1.8129 H   0  0  0  0  0  0  0  0  0  0  0  0
   -6.4780  -12.7210    1.8220 H   0  0  0  0  0  0  0  0  0  0  0  0
   -5.6469  -15.0156    2.0151 H   0  0  0  0  0  0  0  0  0  0  0  0
   -6.4101  -14.8053    0.4209 H   0  0  0  0  0  0  0  0  0  0  0  0
   -4.2771  -16.8343    1.1194 H   0  0  0  0  0  0  0  0  0  0  0  0
   -5.0402  -16.6239   -0.4748 H   0  0  0  0  0  0  0  0  0  0  0  0
   -2.8332  -17.6408   -0.7718 H   0  0  0  0  0  0  0  0  0  0  0  0
   -2.7989  -15.9792   -1.4089 H   0  0  0  0  0  0  0  0  0  0  0  0
   -0.4152  -17.5519   -0.4095 H   0  0  0  0  0  0  0  0  0  0  0  0
   -0.3808  -15.8902   -1.0466 H   0  0  0  0  0  0  0  0  0  0  0  0
    1.5327  -16.2151    0.4455 H   0  0  0  0  0  0  0  0  0  0  0  0
    0.3825  -15.0923    1.2102 H   0  0  0  0  0  0  0  0  0  0  0  0
    2.3938  -16.8345    2.6502 H   0  0  0  0  0  0  0  0  0  0  0  0
    1.2436  -15.7117    3.4149 H   0  0  0  0  0  0  0  0  0  0  0  0
    1.8430  -17.4600    5.0203 H   0  0  0  0  0  0  0  0  0  0  0  0
    0.1447  -17.6751    4.5327 H   0  0  0  0  0  0  0  0  0  0  0  0
    1.9838  -19.8378    5.5792 H   0  0  0  0  0  0  0  0  0  0  0  0
    0.2855  -20.0530    5.0915 H   0  0  0  0  0  0  0  0  0  0  0  0
    1.4551  -22.1935    4.8840 H   0  0  0  0  0  0  0  0  0  0  0  0
    1.0568  -21.5880    3.2583 H   0  0  0  0  0  0  0  0  0  0  0  0
    3.3045  -23.4928    3.9470 H   0  0  0  0  0  0  0  0  0  0  0  0
    2.9061  -22.8873    2.3213 H   0  0  0  0  0  0  0  0  0  0  0  0
    5.2698  -23.5218    2.3822 H   0  0  0  0  0  0  0  0  0  0  0  0
    5.1458  -21.7512    2.2484 H   0  0  0  0  0  0  0  0  0  0  0  0
    7.4798  -23.2898    3.4060 H   0  0  0  0  0  0  0  0  0  0  0  0
    7.3558  -21.5192    3.2722 H   0  0  0  0  0  0  0  0  0  0  0  0
    8.8978  -22.0785    5.0895 H   0  0  0  0  0  0  0  0  0  0  0  0
    7.4161  -21.3739    5.7797 H   0  0  0  0  0  0  0  0  0  0  0  0
    9.3233  -23.2475    7.1963 H   0  0  0  0  0  0  0  0  0  0  0  0
    7.8416  -22.5428    7.8865 H   0  0  0  0  0  0  0  0  0  0  0  0
    8.3626  -24.6241    9.0656 H   0  0  0  0  0  0  0  0  0  0  0  0
    6.8924  -24.8601    8.0903 H   0  0  0  0  0  0  0  0  0  0  0  0
    8.8031  -27.0293    8.9835 H   0  0  0  0  0  0  0  0  0  0  0  0
    7.3330  -27.2653    8.0082 H   0  0  0  0  0  0  0  0  0  0  0  0
    8.8906  -29.1013    7.5653 H   0  0  0  0  0  0  0  0  0  0  0  0
    8.7757  -28.0733    6.1167 H   0  0  0  0  0  0  0  0  0  0  0  0
   11.0448  -28.5388    6.7000 H   0  0  0  0  0  0  0  0  0  0  0  0
  1  2  1  0  0  0  0
  1 44  1  0  0  0  0
  1 45  1  0  0  0  0
  1 46  1  0  0  0  0
  2  3  1  0  0  0  0
  2 47  1  0  0  0  0
  2 48  1  0  0  0  0
  3  4  1  0  0  0  0
  3 49  1  0  0  0  0
  3 50  1  0  0  0  0
  4  5  1  0  0  0  0
  4 51  1  0  0  0  0
  4 52  1  0  0  0  0
  5  6  1  0  0  0  0
  5 53  1  0  0  0  0
  5 54  1  0  0  0  0
  6  7  1  0  0  0  0
  6 55  1  0  0  0  0
  6 56  1  0  0  0  0
  7  8  1  0  0  0  0
  7 57  1  0  0  0  0
  7 58  1  0  0  0  0
  8  9  1  0  0  0  0
  8 59  1  0  0  0  0
  8 60  1  0  0  0  0
  9 10  1  0  0  0  0
  9 61  1  0  0  0  0
  9 62  1  0  0  0  0
 10 15  2  0  0  0  0
 10 11  1  0  0  0  0
 11 12  2  0  0  0  0
 11 63  1  0  0  0  0
 12 13  1  0  0  0  0
 12 64  1  0  0  0  0
 13 14  2  0  0  0  0
 13 16  1  0  0  0  0
 14 15  1  0  0  0  0
 14 65  1  0  0  0  0
 15 66  1  0  0  0  0
 16 17  1  0  0  0  0
 17 18  1  0  0  0  0
 17 67  1  0  0  0  0
 17 68  1  0  0  0  0
 18 19  1  0  0  0  0
 18 69  1  0  0  0  0
 18 70  1  0  0  0  0
 19 20  1  0  0  0  0
 20 21  1  0  0  0  0
 20 71  1  0  0  0  0
 20 72  1  0  0  0  0
 21 22  1  0  0  0  0
 21 73  1  0  0  0  0
 21 74  1  0  0  0  0
 22 23  1  0  0  0  0
 23 24  1  0  0  0  0
 23 75  1  0  0  0  0
 23 76  1  0  0  0  0
 24 25  1  0  0  0  0
 24 77  1  0  0  0  0
 24 78  1  0  0  0  0
 25 26  1  0  0  0  0
 26 27  1  0  0  0  0
 26 79  1  0  0  0  0
 26 80  1  0  0  0  0
 27 28  1  0  0  0  0
 27 81  1  0  0  0  0
 27 82  1  0  0  0  0
 28 29  1  0  0  0  0
 29 30  1  0  0  0  0
 29 83  1  0  0  0  0
 29 84  1  0  0  0  0
 30 31  1  0  0  0  0
 30 85  1  0  0  0  0
 30 86  1  0  0  0  0
 31 32  1  0  0  0  0
 32 33  1  0  0  0  0
 32 87  1  0  0  0  0
 32 88  1  0  0  0  0
 33 34  1  0  0  0  0
 33 89  1  0  0  0  0
 33 90  1  0  0  0  0
 34 35  1  0  0  0  0
 35 36  1  0  0  0  0
 35 91  1  0  0  0  0
 35 92  1  0  0  0  0
 36 37  1  0  0  0  0
 36 93  1  0  0  0  0
 36 94  1  0  0  0  0
 37 38  1  0  0  0  0
 38 39  1  0  0  0  0
 38 95  1  0  0  0  0
 38 96  1  0  0  0  0
 39 40  1  0  0  0  0
 39 97  1  0  0  0  0
 39 98  1  0  0  0  0
 40 41  1  0  0  0  0
 41 42  1  0  0  0  0
 41 99  1  0  0  0  0
 41100  1  0  0  0  0
 42 43  1  0  0  0  0
 42101  1  0  0  0  0
 42102  1  0  0  0  0
 43103  1  0  0  0  0
M  END
$$$$
