ZINC29416466
 OpenBabel08292219463D

100104  0  0  1  0  0  0  0  0999 V2000
    6.4462    4.4736   -0.7189 C   0  0  0  0  0  0  0  0  0  0  0  0
    7.8439    3.9835   -0.3352 C   0  0  0  0  0  0  0  0  0  0  0  0
    8.4888    4.9836    0.6266 C   0  0  0  0  0  0  0  0  0  0  0  0
    8.7043    3.8594   -1.5943 C   0  0  0  0  0  0  0  0  0  0  0  0
    7.7409    2.6757    0.3168 N   0  0  0  0  0  0  0  0  0  0  0  0
    7.2008    1.6333   -0.3451 C   0  0  0  0  0  0  0  0  0  0  0  0
    6.8000    1.7781   -1.4806 O   0  0  0  0  0  0  0  0  0  0  0  0
    7.0949    0.2880    0.3256 C   0  0  2  0  0  0  0  0  0  0  0  0
    6.7653    0.4157    1.3672 H   0  0  0  0  0  0  0  0  0  0  0  0
    8.4502   -0.4202    0.2642 C   0  0  0  0  0  0  0  0  0  0  0  0
    8.3302   -1.7939    0.9327 C   0  0  1  0  0  0  0  0  0  0  0  0
    9.2889   -2.3298    0.8720 H   0  0  0  0  0  0  0  0  0  0  0  0
    7.9435   -1.6044    2.4013 C   0  0  0  0  0  0  0  0  0  0  0  0
    7.7909   -2.9709    3.0716 C   0  0  0  0  0  0  0  0  0  0  0  0
    6.6953   -3.7672    2.3596 C   0  0  0  0  0  0  0  0  0  0  0  0
    7.0819   -3.9623    0.8923 C   0  0  0  0  0  0  0  0  0  0  0  0
    7.2423   -2.5999    0.2184 C   0  0  1  0  0  0  0  0  0  0  0  0
    7.5278   -2.7526   -0.8329 H   0  0  0  0  0  0  0  0  0  0  0  0
    5.9205   -1.8326    0.2822 C   0  0  0  0  0  0  0  0  0  0  0  0
    6.0833   -0.5233   -0.3630 N   0  3  1  0  0  0  0  0  0  0  0  0
    4.8007    0.1887   -0.4402 C   0  0  0  0  0  0  0  0  0  0  0  0
    3.9259   -0.4518   -1.5198 C   0  0  2  0  0  0  0  0  0  0  0  0
    4.4680   -0.5383   -2.4731 H   0  0  0  0  0  0  0  0  0  0  0  0
    2.6409    0.3622   -1.6843 C   0  0  2  0  0  0  0  0  0  0  0  0
    2.8739    1.4086   -1.9308 H   0  0  0  0  0  0  0  0  0  0  0  0
    1.8183    0.2824   -0.3968 C   0  0  0  0  0  0  0  0  0  0  0  0
    0.6145    1.1815   -0.5133 C   0  0  0  0  0  0  0  0  0  0  0  0
   -0.5700    0.6874   -1.0269 C   0  0  0  0  0  0  0  0  0  0  0  0
   -1.6727    1.5135   -1.1387 C   0  0  0  0  0  0  0  0  0  0  0  0
   -1.5938    2.8311   -0.7279 C   0  0  0  0  0  0  0  0  0  0  0  0
   -0.4096    3.3249   -0.2135 C   0  0  0  0  0  0  0  0  0  0  0  0
    0.6946    2.5000   -0.1062 C   0  0  0  0  0  0  0  0  0  0  0  0
    1.8587   -0.1800   -2.7980 N   0  0  0  0  0  0  0  0  0  0  0  0
    0.9886    0.6099   -3.4579 C   0  0  0  0  0  0  0  0  0  0  0  0
    0.8533    1.7696   -3.1298 O   0  0  0  0  0  0  0  0  0  0  0  0
    0.1839    0.0522   -4.6035 C   0  0  2  0  0  0  0  0  0  0  0  0
   -0.4661   -0.7584   -4.2424 H   0  0  0  0  0  0  0  0  0  0  0  0
    1.1310   -0.4481   -5.6961 C   0  0  0  0  0  0  0  0  0  0  0  0
    1.9466    0.7054   -6.2207 C   0  0  0  0  0  0  0  0  0  0  0  0
    1.8354    1.8043   -5.7196 O   0  0  0  0  0  0  0  0  0  0  0  0
    2.7996    0.5160   -7.2468 N   0  0  0  0  0  0  0  0  0  0  0  0
   -0.6806    1.1014   -5.1495 N   0  0  0  0  0  0  0  0  0  0  0  0
   -1.7771    0.7695   -5.8594 C   0  0  0  0  0  0  0  0  0  0  0  0
   -2.0993   -0.3968   -5.9698 O   0  0  0  0  0  0  0  0  0  0  0  0
   -2.5902    1.8276   -6.5058 C   0  0  0  0  0  0  0  0  0  0  0  0
   -3.7282    1.4642   -7.2409 C   0  0  0  0  0  0  0  0  0  0  0  0
   -4.4856    2.4287   -7.8404 C   0  0  0  0  0  0  0  0  0  0  0  0
   -4.0898    3.7718   -7.6961 C   0  0  0  0  0  0  0  0  0  0  0  0
   -4.8223    4.8149   -8.2853 C   0  0  0  0  0  0  0  0  0  0  0  0
   -4.4098    6.1022   -8.1241 C   0  0  0  0  0  0  0  0  0  0  0  0
   -3.2687    6.4009   -7.3805 C   0  0  0  0  0  0  0  0  0  0  0  0
   -2.5341    5.4171   -6.7958 C   0  0  0  0  0  0  0  0  0  0  0  0
   -2.9277    4.0726   -6.9390 C   0  0  0  0  0  0  0  0  0  0  0  0
   -2.2297    3.0891   -6.3718 N   0  0  0  0  0  0  0  0  0  0  0  0
    3.5972   -1.7884   -1.1355 O   0  0  0  0  0  0  0  0  0  0  0  0
    5.9826    3.7546   -1.4104 H   0  0  0  0  0  0  0  0  0  0  0  0
    6.5236    5.4556   -1.2085 H   0  0  0  0  0  0  0  0  0  0  0  0
    5.8277    4.5629    0.1863 H   0  0  0  0  0  0  0  0  0  0  0  0
    9.4937    4.6313    0.9025 H   0  0  0  0  0  0  0  0  0  0  0  0
    7.8702    5.0729    1.5318 H   0  0  0  0  0  0  0  0  0  0  0  0
    8.5661    5.9656    0.1370 H   0  0  0  0  0  0  0  0  0  0  0  0
    9.7092    3.5070   -1.3184 H   0  0  0  0  0  0  0  0  0  0  0  0
    8.7816    4.8414   -2.0838 H   0  0  0  0  0  0  0  0  0  0  0  0
    8.2406    3.1405   -2.2858 H   0  0  0  0  0  0  0  0  0  0  0  0
    8.1044    2.5444    1.3467 H   0  0  0  0  0  0  0  0  0  0  0  0
    8.7512   -0.5454   -0.7864 H   0  0  0  0  0  0  0  0  0  0  0  0
    9.2035    0.1832    0.7920 H   0  0  0  0  0  0  0  0  0  0  0  0
    8.7281   -1.0302    2.9159 H   0  0  0  0  0  0  0  0  0  0  0  0
    6.9903   -1.0588    2.4620 H   0  0  0  0  0  0  0  0  0  0  0  0
    8.7428   -3.5186    3.0085 H   0  0  0  0  0  0  0  0  0  0  0  0
    7.5168   -2.8326    4.1279 H   0  0  0  0  0  0  0  0  0  0  0  0
    6.5820   -4.7485    2.8435 H   0  0  0  0  0  0  0  0  0  0  0  0
    5.7446   -3.2171    2.4192 H   0  0  0  0  0  0  0  0  0  0  0  0
    8.0323   -4.5131    0.8337 H   0  0  0  0  0  0  0  0  0  0  0  0
    6.2947   -4.5336    0.3785 H   0  0  0  0  0  0  0  0  0  0  0  0
    5.1391   -2.4043   -0.2400 H   0  0  0  0  0  0  0  0  0  0  0  0
    5.6297   -1.6899    1.3334 H   0  0  0  0  0  0  0  0  0  0  0  0
    4.2882    0.1273    0.5312 H   0  0  0  0  0  0  0  0  0  0  0  0
    4.9817    1.2438   -0.6932 H   0  0  0  0  0  0  0  0  0  0  0  0
    1.4875   -0.7544   -0.2367 H   0  0  0  0  0  0  0  0  0  0  0  0
    2.4364    0.6055    0.4538 H   0  0  0  0  0  0  0  0  0  0  0  0
   -0.6326   -0.3428   -1.3450 H   0  0  0  0  0  0  0  0  0  0  0  0
   -2.5968    1.1287   -1.5441 H   0  0  0  0  0  0  0  0  0  0  0  0
   -2.4563    3.4755   -0.8121 H   0  0  0  0  0  0  0  0  0  0  0  0
   -0.3469    4.3551    0.1043 H   0  0  0  0  0  0  0  0  0  0  0  0
    1.6199    2.8859    0.2954 H   0  0  0  0  0  0  0  0  0  0  0  0
    1.9815   -1.2318   -3.0957 H   0  0  0  0  0  0  0  0  0  0  0  0
    1.8029   -1.2118   -5.2774 H   0  0  0  0  0  0  0  0  0  0  0  0
    0.5447   -0.8861   -6.5173 H   0  0  0  0  0  0  0  0  0  0  0  0
    3.3949    1.3580   -7.6297 H   0  0  0  0  0  0  0  0  0  0  0  0
    2.9005   -0.4806   -7.7014 H   0  0  0  0  0  0  0  0  0  0  0  0
   -0.4348    2.1601   -4.9801 H   0  0  0  0  0  0  0  0  0  0  0  0
   -4.0047    0.4241   -7.3321 H   0  0  0  0  0  0  0  0  0  0  0  0
   -5.3653    2.1683   -8.4102 H   0  0  0  0  0  0  0  0  0  0  0  0
   -5.7080    4.5971   -8.8637 H   0  0  0  0  0  0  0  0  0  0  0  0
   -4.9744    6.9031   -8.5780 H   0  0  0  0  0  0  0  0  0  0  0  0
   -2.9630    7.4306   -7.2675 H   0  0  0  0  0  0  0  0  0  0  0  0
   -1.6525    5.6659   -6.2238 H   0  0  0  0  0  0  0  0  0  0  0  0
    2.9705   -2.4108   -1.7911 H   0  0  0  0  0  0  0  0  0  0  0  0
    6.4377   -0.6981   -1.3896 H   0  0  0  0  0  0  0  0  0  0  0  0
  1  2  1  0  0  0  0
  1 56  1  0  0  0  0
  1 57  1  0  0  0  0
  1 58  1  0  0  0  0
  2  3  1  0  0  0  0
  2  4  1  0  0  0  0
  2  5  1  0  0  0  0
  3 59  1  0  0  0  0
  3 60  1  0  0  0  0
  3 61  1  0  0  0  0
  4 62  1  0  0  0  0
  4 63  1  0  0  0  0
  4 64  1  0  0  0  0
  5  6  1  0  0  0  0
  5 65  1  0  0  0  0
  6  7  2  0  0  0  0
  6  8  1  0  0  0  0
  8  9  1  1  0  0  0
  8 20  1  0  0  0  0
  8 10  1  0  0  0  0
 10 11  1  0  0  0  0
 10 66  1  0  0  0  0
 10 67  1  0  0  0  0
 11 12  1  6  0  0  0
 11 17  1  0  0  0  0
 11 13  1  0  0  0  0
 13 14  1  0  0  0  0
 13 68  1  0  0  0  0
 13 69  1  0  0  0  0
 14 15  1  0  0  0  0
 14 70  1  0  0  0  0
 14 71  1  0  0  0  0
 15 16  1  0  0  0  0
 15 72  1  0  0  0  0
 15 73  1  0  0  0  0
 16 17  1  0  0  0  0
 16 74  1  0  0  0  0
 16 75  1  0  0  0  0
 17 18  1  6  0  0  0
 17 19  1  0  0  0  0
 19 20  1  0  0  0  0
 19 76  1  0  0  0  0
 19 77  1  0  0  0  0
 20 21  1  0  0  0  0
 20100  1  6  0  0  0
 21 22  1  0  0  0  0
 21 78  1  0  0  0  0
 21 79  1  0  0  0  0
 22 23  1  6  0  0  0
 22 24  1  0  0  0  0
 22 55  1  0  0  0  0
 24 25  1  6  0  0  0
 24 26  1  0  0  0  0
 24 33  1  0  0  0  0
 26 27  1  0  0  0  0
 26 80  1  0  0  0  0
 26 81  1  0  0  0  0
 27 32  2  0  0  0  0
 27 28  1  0  0  0  0
 28 29  2  0  0  0  0
 28 82  1  0  0  0  0
 29 30  1  0  0  0  0
 29 83  1  0  0  0  0
 30 31  2  0  0  0  0
 30 84  1  0  0  0  0
 31 32  1  0  0  0  0
 31 85  1  0  0  0  0
 32 86  1  0  0  0  0
 33 34  1  0  0  0  0
 33 87  1  0  0  0  0
 34 35  2  0  0  0  0
 34 36  1  0  0  0  0
 36 37  1  1  0  0  0
 36 38  1  0  0  0  0
 36 42  1  0  0  0  0
 38 39  1  0  0  0  0
 38 88  1  0  0  0  0
 38 89  1  0  0  0  0
 39 40  2  0  0  0  0
 39 41  1  0  0  0  0
 41 90  1  0  0  0  0
 41 91  1  0  0  0  0
 42 43  1  0  0  0  0
 42 92  1  0  0  0  0
 43 44  2  0  0  0  0
 43 45  1  0  0  0  0
 45 54  2  0  0  0  0
 45 46  1  0  0  0  0
 46 47  2  0  0  0  0
 46 93  1  0  0  0  0
 47 48  1  0  0  0  0
 47 94  1  0  0  0  0
 48 53  2  0  0  0  0
 48 49  1  0  0  0  0
 49 50  2  0  0  0  0
 49 95  1  0  0  0  0
 50 51  1  0  0  0  0
 50 96  1  0  0  0  0
 51 52  2  0  0  0  0
 51 97  1  0  0  0  0
 52 53  1  0  0  0  0
 52 98  1  0  0  0  0
 53 54  1  0  0  0  0
 55 99  1  0  0  0  0
M  CHG  1  20   1
M  END
$$$$
