ZINC19632718
 OpenBabel08292219463D

 56 57  0  0  1  0  0  0  0  0999 V2000
    0.2169    1.4961    0.1240 C   0  0  0  0  0  0  0  0  0  0  0  0
    0.1168   -0.0062    0.0594 C   0  0  0  0  0  0  0  0  0  0  0  0
   -1.0882   -0.5956    0.1458 C   0  0  0  0  0  0  0  0  0  0  0  0
   -1.2347   -2.0899    0.0953 C   0  0  1  0  0  0  0  0  0  0  0  0
   -2.0745   -2.3466   -0.5505 H   0  0  0  0  0  0  0  0  0  0  0  0
    0.0148   -2.7292   -0.4406 C   0  0  0  0  0  0  0  0  0  0  0  0
    1.1757   -2.0544   -0.5036 C   0  0  0  0  0  0  0  0  0  0  0  0
    1.2530   -0.7532   -0.0921 N   0  0  0  0  0  0  0  0  0  0  0  0
    2.4064   -2.7390   -1.0400 C   0  0  0  0  0  0  0  0  0  0  0  0
   -0.0312   -4.0699   -0.8880 C   0  0  0  0  0  0  0  0  0  0  0  0
   -0.4598   -4.3266   -1.9976 O   0  0  0  0  0  0  0  0  0  0  0  0
    0.4003   -5.0645   -0.0845 O   0  0  0  0  0  0  0  0  0  0  0  0
    0.3249   -6.3948   -0.6010 C   0  0  0  0  0  0  0  0  0  0  0  0
    1.6267   -6.7333   -1.3302 C   0  0  0  0  0  0  0  0  0  0  0  0
    0.1154   -7.3785    0.5519 C   0  0  0  0  0  0  0  0  0  0  0  0
   -1.5003   -2.6097    1.4847 C   0  0  0  0  0  0  0  0  0  0  0  0
   -0.5800   -2.3898    2.4927 C   0  0  0  0  0  0  0  0  0  0  0  0
   -0.8236   -2.8665    3.7669 C   0  0  0  0  0  0  0  0  0  0  0  0
   -1.9878   -3.5629    4.0337 C   0  0  0  0  0  0  0  0  0  0  0  0
   -2.9083   -3.7819    3.0262 C   0  0  0  0  0  0  0  0  0  0  0  0
   -2.6666   -3.3013    1.7525 C   0  0  0  0  0  0  0  0  0  0  0  0
   -4.1545   -4.5279    3.3116 N   0  0  0  0  0  4  0  0  0  0  0  0
   -4.3672   -4.9456    4.4260 O   0  0  0  0  0  0  0  0  0  0  0  0
   -4.9597   -4.7195    2.4303 O   0  5  0  0  0  0  0  0  0  0  0  0
   -2.2430    0.2083    0.2878 C   0  0  0  0  0  0  0  0  0  0  0  0
   -2.1393    1.4200    0.3306 O   0  0  0  0  0  0  0  0  0  0  0  0
   -3.4599   -0.3683    0.3759 O   0  0  0  0  0  0  0  0  0  0  0  0
   -4.5825    0.5044    0.5179 C   0  0  0  0  0  0  0  0  0  0  0  0
   -5.8657   -0.3248    0.6012 C   0  0  0  0  0  0  0  0  0  0  0  0
   -5.8467   -1.1133    1.7928 O   0  0  0  0  0  0  0  0  0  0  0  0
   -7.0064   -1.9297    1.9680 C   0  0  0  0  0  0  0  0  0  0  0  0
    1.2612    1.7949    0.0337 H   0  0  0  0  0  0  0  0  0  0  0  0
   -0.3581    1.9340   -0.6920 H   0  0  0  0  0  0  0  0  0  0  0  0
   -0.1801    1.8461    1.0769 H   0  0  0  0  0  0  0  0  0  0  0  0
    2.1188   -0.3590    0.0973 H   0  0  0  0  0  0  0  0  0  0  0  0
    2.4825   -2.5613   -2.1127 H   0  0  0  0  0  0  0  0  0  0  0  0
    3.2902   -2.3402   -0.5420 H   0  0  0  0  0  0  0  0  0  0  0  0
    2.3366   -3.8106   -0.8533 H   0  0  0  0  0  0  0  0  0  0  0  0
   -0.5109   -6.4674   -1.2970 H   0  0  0  0  0  0  0  0  0  0  0  0
    1.7759   -6.0324   -2.1516 H   0  0  0  0  0  0  0  0  0  0  0  0
    2.4624   -6.6606   -0.6342 H   0  0  0  0  0  0  0  0  0  0  0  0
    1.5691   -7.7479   -1.7242 H   0  0  0  0  0  0  0  0  0  0  0  0
   -0.8120   -7.1373    1.0714 H   0  0  0  0  0  0  0  0  0  0  0  0
    0.0579   -8.3932    0.1579 H   0  0  0  0  0  0  0  0  0  0  0  0
    0.9512   -7.3058    1.2479 H   0  0  0  0  0  0  0  0  0  0  0  0
    0.3295   -1.8459    2.2843 H   0  0  0  0  0  0  0  0  0  0  0  0
   -0.1043   -2.6954    4.5542 H   0  0  0  0  0  0  0  0  0  0  0  0
   -2.1779   -3.9360    5.0292 H   0  0  0  0  0  0  0  0  0  0  0  0
   -3.3876   -3.4693    0.9662 H   0  0  0  0  0  0  0  0  0  0  0  0
   -4.4714    1.0943    1.4277 H   0  0  0  0  0  0  0  0  0  0  0  0
   -4.6358    1.1708   -0.3430 H   0  0  0  0  0  0  0  0  0  0  0  0
   -6.7282    0.3414    0.6200 H   0  0  0  0  0  0  0  0  0  0  0  0
   -5.9318   -0.9802   -0.2672 H   0  0  0  0  0  0  0  0  0  0  0  0
   -6.9150   -2.4967    2.8944 H   0  0  0  0  0  0  0  0  0  0  0  0
   -7.8926   -1.2968    2.0152 H   0  0  0  0  0  0  0  0  0  0  0  0
   -7.0962   -2.6185    1.1279 H   0  0  0  0  0  0  0  0  0  0  0  0
  1  2  1  0  0  0  0
  1 32  1  0  0  0  0
  1 33  1  0  0  0  0
  1 34  1  0  0  0  0
  2  8  1  0  0  0  0
  2  3  2  0  0  0  0
  3  4  1  0  0  0  0
  3 25  1  0  0  0  0
  4  5  1  6  0  0  0
  4  6  1  0  0  0  0
  4 16  1  0  0  0  0
  6  7  2  0  0  0  0
  6 10  1  0  0  0  0
  7  8  1  0  0  0  0
  7  9  1  0  0  0  0
  8 35  1  0  0  0  0
  9 36  1  0  0  0  0
  9 37  1  0  0  0  0
  9 38  1  0  0  0  0
 10 11  2  0  0  0  0
 10 12  1  0  0  0  0
 12 13  1  0  0  0  0
 13 14  1  0  0  0  0
 13 15  1  0  0  0  0
 13 39  1  0  0  0  0
 14 40  1  0  0  0  0
 14 41  1  0  0  0  0
 14 42  1  0  0  0  0
 15 43  1  0  0  0  0
 15 44  1  0  0  0  0
 15 45  1  0  0  0  0
 16 21  2  0  0  0  0
 16 17  1  0  0  0  0
 17 18  2  0  0  0  0
 17 46  1  0  0  0  0
 18 19  1  0  0  0  0
 18 47  1  0  0  0  0
 19 20  2  0  0  0  0
 19 48  1  0  0  0  0
 20 21  1  0  0  0  0
 20 22  1  0  0  0  0
 21 49  1  0  0  0  0
 22 23  2  0  0  0  0
 22 24  1  0  0  0  0
 25 26  2  0  0  0  0
 25 27  1  0  0  0  0
 27 28  1  0  0  0  0
 28 29  1  0  0  0  0
 28 50  1  0  0  0  0
 28 51  1  0  0  0  0
 29 30  1  0  0  0  0
 29 52  1  0  0  0  0
 29 53  1  0  0  0  0
 30 31  1  0  0  0  0
 31 54  1  0  0  0  0
 31 55  1  0  0  0  0
 31 56  1  0  0  0  0
M  CHG  1  24  -1
M  END
$$$$
