ZINC00896485
 OpenBabel08292219463D

 32 34  0  0  1  0  0  0  0  0999 V2000
    4.3367   -3.8668   -2.4854 C   0  0  0  0  0  0  0  0  0  0  0  0
    4.0242   -4.4500   -1.2704 C   0  0  0  0  0  0  0  0  0  0  0  0
    3.0524   -3.8934   -0.4644 C   0  0  0  0  0  0  0  0  0  0  0  0
    2.3848   -2.7404   -0.8768 C   0  0  0  0  0  0  0  0  0  0  0  0
    2.7002   -2.1603   -2.1052 C   0  0  0  0  0  0  0  0  0  0  0  0
    3.6779   -2.7230   -2.8999 C   0  0  0  0  0  0  0  0  0  0  0  0
    1.3404   -2.1377   -0.0160 C   0  0  0  0  0  0  0  0  0  0  0  0
    0.7558   -2.9043    0.8351 N   0  0  0  0  0  0  0  0  0  0  0  0
   -0.2936   -2.4105    1.7258 C   0  0  2  0  0  0  0  0  0  0  0  0
   -0.6040   -3.2076    2.4013 H   0  0  0  0  0  0  0  0  0  0  0  0
   -1.4678   -1.9671    0.8964 C   0  0  0  0  0  0  0  0  0  0  0  0
   -2.5283   -2.5425    1.0189 O   0  0  0  0  0  0  0  0  0  0  0  0
   -1.3733   -0.9600    0.0320 N   0  0  0  0  0  0  0  0  0  0  0  0
   -0.2417   -0.1838   -0.1679 C   0  0  0  0  0  0  0  0  0  0  0  0
    1.0496   -0.7071   -0.1995 C   0  0  0  0  0  0  0  0  0  0  0  0
    2.1354    0.1551   -0.4141 C   0  0  0  0  0  0  0  0  0  0  0  0
    1.9317    1.5054   -0.5911 C   0  0  0  0  0  0  0  0  0  0  0  0
    0.6467    2.0228   -0.5568 C   0  0  0  0  0  0  0  0  0  0  0  0
   -0.4290    1.1879   -0.3476 C   0  0  0  0  0  0  0  0  0  0  0  0
    3.2850    2.5596   -0.8574 Cl  0  0  0  0  0  0  0  0  0  0  0  0
    0.2295   -1.2442    2.5241 C   0  0  0  0  0  0  0  0  0  0  0  0
    1.1983   -0.6340    2.1382 O   0  0  0  0  0  0  0  0  0  0  0  0
    5.0983   -4.3059   -3.1126 H   0  0  0  0  0  0  0  0  0  0  0  0
    4.5421   -5.3426   -0.9520 H   0  0  0  0  0  0  0  0  0  0  0  0
    2.8095   -4.3494    0.4840 H   0  0  0  0  0  0  0  0  0  0  0  0
    2.1833   -1.2702   -2.4320 H   0  0  0  0  0  0  0  0  0  0  0  0
    3.9260   -2.2724   -3.8495 H   0  0  0  0  0  0  0  0  0  0  0  0
   -2.1575   -0.7523   -0.4998 H   0  0  0  0  0  0  0  0  0  0  0  0
    3.1388   -0.2434   -0.4410 H   0  0  0  0  0  0  0  0  0  0  0  0
    0.4881    3.0821   -0.6950 H   0  0  0  0  0  0  0  0  0  0  0  0
   -1.4279    1.5981   -0.3269 H   0  0  0  0  0  0  0  0  0  0  0  0
   -0.3808   -0.8835    3.6639 O   0  0  0  0  0  1  0  0  0  0  0  0
  1  6  2  0  0  0  0
  1  2  1  0  0  0  0
  1 23  1  0  0  0  0
  2  3  2  0  0  0  0
  2 24  1  0  0  0  0
  3  4  1  0  0  0  0
  3 25  1  0  0  0  0
  4  5  2  0  0  0  0
  4  7  1  0  0  0  0
  5  6  1  0  0  0  0
  5 26  1  0  0  0  0
  6 27  1  0  0  0  0
  7 15  1  0  0  0  0
  7  8  2  0  0  0  0
  8  9  1  0  0  0  0
  9 10  1  1  0  0  0
  9 11  1  0  0  0  0
  9 21  1  0  0  0  0
 11 12  2  0  0  0  0
 11 13  1  0  0  0  0
 13 14  1  0  0  0  0
 13 28  1  0  0  0  0
 14 19  2  0  0  0  0
 14 15  1  0  0  0  0
 15 16  2  0  0  0  0
 16 17  1  0  0  0  0
 16 29  1  0  0  0  0
 17 18  2  0  0  0  0
 17 20  1  0  0  0  0
 18 19  1  0  0  0  0
 18 30  1  0  0  0  0
 19 31  1  0  0  0  0
 21 22  2  0  0  0  0
 21 32  1  0  0  0  0
M  END
$$$$
