ZINC19606670
 OpenBabel08292219463D

 35 36  0  0  0  0  0  0  0  0999 V2000
   -0.0169    1.3919    0.0097 C   0  0  0  0  0  0  0  0  0  0  0  0
    1.1695    2.0948    0.0021 C   0  0  0  0  0  0  0  0  0  0  0  0
    2.3782    1.4186   -0.0130 C   0  0  0  0  0  0  0  0  0  0  0  0
    2.4034    0.0338   -0.0212 C   0  0  0  0  0  0  0  0  0  0  0  0
    1.2236   -0.6800   -0.0137 C   0  0  0  0  0  0  0  0  0  0  0  0
    0.0021   -0.0041    0.0020 C   0  0  0  0  0  0  0  0  0  0  0  0
   -1.2659   -0.7632    0.0100 C   0  0  0  0  0  0  0  0  0  0  0  0
   -2.3281   -0.1722    0.0234 O   0  0  0  0  0  0  0  0  0  0  0  0
   -1.2445   -2.1108    0.0026 N   0  0  0  0  0  0  0  0  0  0  0  0
   -2.5014   -2.8634    0.0106 C   0  0  0  0  0  0  0  0  0  0  0  0
   -2.1981   -4.3629   -0.0004 C   0  0  0  0  0  0  0  0  0  0  0  0
   -3.4584   -5.1176    0.0076 N   0  0  0  0  0  0  0  0  0  0  0  0
   -4.1811   -4.9229    1.2730 C   0  0  0  0  0  0  0  0  0  0  0  0
   -5.5125   -5.6764    1.2152 C   0  0  0  0  0  0  0  0  0  0  0  0
   -5.2613   -7.0576    0.9421 O   0  0  0  0  0  0  0  0  0  0  0  0
   -4.5596   -7.2838   -0.2833 C   0  0  0  0  0  0  0  0  0  0  0  0
   -3.2185   -6.5466   -0.2407 C   0  0  0  0  0  0  0  0  0  0  0  0
    3.8676    2.3104   -0.0225 Cl  0  0  0  0  0  0  0  0  0  0  0  0
   -0.9587    1.9202    0.0260 H   0  0  0  0  0  0  0  0  0  0  0  0
    1.1561    3.1747    0.0077 H   0  0  0  0  0  0  0  0  0  0  0  0
    3.3489   -0.4880   -0.0337 H   0  0  0  0  0  0  0  0  0  0  0  0
    1.2444   -1.7598   -0.0205 H   0  0  0  0  0  0  0  0  0  0  0  0
   -0.3969   -2.5824   -0.0080 H   0  0  0  0  0  0  0  0  0  0  0  0
   -3.0686   -2.6139    0.9074 H   0  0  0  0  0  0  0  0  0  0  0  0
   -3.0856   -2.6044   -0.8725 H   0  0  0  0  0  0  0  0  0  0  0  0
   -1.6309   -4.6124   -0.8972 H   0  0  0  0  0  0  0  0  0  0  0  0
   -1.6139   -4.6219    0.8827 H   0  0  0  0  0  0  0  0  0  0  0  0
   -3.5808   -5.3071    2.0977 H   0  0  0  0  0  0  0  0  0  0  0  0
   -4.3706   -3.8602    1.4241 H   0  0  0  0  0  0  0  0  0  0  0  0
   -6.0259   -5.5821    2.1721 H   0  0  0  0  0  0  0  0  0  0  0  0
   -6.1345   -5.2564    0.4248 H   0  0  0  0  0  0  0  0  0  0  0  0
   -4.3838   -8.3521   -0.4102 H   0  0  0  0  0  0  0  0  0  0  0  0
   -5.1538   -6.9105   -1.1173 H   0  0  0  0  0  0  0  0  0  0  0  0
   -2.7053   -6.6691   -1.1945 H   0  0  0  0  0  0  0  0  0  0  0  0
   -2.6029   -6.9568    0.5598 H   0  0  0  0  0  0  0  0  0  0  0  0
  1  6  2  0  0  0  0
  1  2  1  0  0  0  0
  1 19  1  0  0  0  0
  2  3  2  0  0  0  0
  2 20  1  0  0  0  0
  3  4  1  0  0  0  0
  3 18  1  0  0  0  0
  4  5  2  0  0  0  0
  4 21  1  0  0  0  0
  5  6  1  0  0  0  0
  5 22  1  0  0  0  0
  6  7  1  0  0  0  0
  7  8  2  0  0  0  0
  7  9  1  0  0  0  0
  9 10  1  0  0  0  0
  9 23  1  0  0  0  0
 10 11  1  0  0  0  0
 10 24  1  0  0  0  0
 10 25  1  0  0  0  0
 11 12  1  0  0  0  0
 11 26  1  0  0  0  0
 11 27  1  0  0  0  0
 12 17  1  0  0  0  0
 12 13  1  0  0  0  0
 13 14  1  0  0  0  0
 13 28  1  0  0  0  0
 13 29  1  0  0  0  0
 14 15  1  0  0  0  0
 14 30  1  0  0  0  0
 14 31  1  0  0  0  0
 15 16  1  0  0  0  0
 16 17  1  0  0  0  0
 16 32  1  0  0  0  0
 16 33  1  0  0  0  0
 17 34  1  0  0  0  0
 17 35  1  0  0  0  0
M  END
$$$$
