ZINC00057255
 OpenBabel08292219463D

 33 35  0  0  1  0  0  0  0  0999 V2000
   -0.0166    1.3752    0.0096 C   0  0  0  0  0  0  0  0  0  0  0  0
    1.1683    2.0900    0.0021 C   0  0  0  0  0  0  0  0  0  0  0  0
    2.3827    1.4248   -0.0135 C   0  0  0  0  0  0  0  0  0  0  0  0
    2.4125    0.0494   -0.0211 C   0  0  0  0  0  0  0  0  0  0  0  0
    1.2226   -0.6819   -0.0132 C   0  0  0  0  0  0  0  0  0  0  0  0
    0.0021   -0.0041    0.0020 C   0  0  0  0  0  0  0  0  0  0  0  0
    1.5619   -2.1178   -0.0242 C   0  0  0  0  0  0  0  0  0  0  0  0
    0.7510   -3.0233   -0.0214 O   0  0  0  0  0  0  0  0  0  0  0  0
    2.8961   -2.2814   -0.0383 N   0  0  0  0  0  0  0  0  0  0  0  0
    3.5334   -0.9597   -0.0376 C   0  0  2  0  0  0  0  0  0  0  0  0
    4.3923   -0.7996    1.1903 C   0  0  0  0  0  0  0  0  0  0  0  0
    5.4128    0.1332    1.2029 C   0  0  0  0  0  0  0  0  0  0  0  0
    6.2011    0.2801    2.3284 C   0  0  0  0  0  0  0  0  0  0  0  0
    5.9687   -0.5063    3.4430 C   0  0  0  0  0  0  0  0  0  0  0  0
    4.9474   -1.4391    3.4299 C   0  0  0  0  0  0  0  0  0  0  0  0
    4.1561   -1.5815    2.3053 C   0  0  0  0  0  0  0  0  0  0  0  0
    4.6507   -2.4410    4.8487 S   0  0  0  0  0  0  0  0  0  0  0  0
    4.6097   -1.5625    5.9648 O   0  0  0  0  0  0  0  0  0  0  0  0
    3.5710   -3.3036    4.5181 O   0  0  0  0  0  0  0  0  0  0  0  0
    5.9812   -3.4053    5.0540 N   0  0  0  0  0  0  0  0  0  0  0  0
    6.9590   -0.3227    4.8570 Cl  0  0  0  0  0  0  0  0  0  0  0  0
    4.3247   -0.7954   -1.2161 O   0  0  0  0  0  0  0  0  0  0  0  0
   -0.9606    1.8997    0.0259 H   0  0  0  0  0  0  0  0  0  0  0  0
    1.1458    3.1698    0.0081 H   0  0  0  0  0  0  0  0  0  0  0  0
    3.3058    1.9854   -0.0200 H   0  0  0  0  0  0  0  0  0  0  0  0
   -0.9249   -0.5581    0.0082 H   0  0  0  0  0  0  0  0  0  0  0  0
    3.3608   -3.1327   -0.0474 H   0  0  0  0  0  0  0  0  0  0  0  0
    5.5941    0.7469    0.3329 H   0  0  0  0  0  0  0  0  0  0  0  0
    6.9986    1.0083    2.3379 H   0  0  0  0  0  0  0  0  0  0  0  0
    3.3561   -2.3069    2.2964 H   0  0  0  0  0  0  0  0  0  0  0  0
    6.2370   -3.6960    5.9434 H   0  0  0  0  0  0  0  0  0  0  0  0
    6.5049   -3.6794    4.2849 H   0  0  0  0  0  0  0  0  0  0  0  0
    5.0625   -1.4167   -1.2841 H   0  0  0  0  0  0  0  0  0  0  0  0
  1  6  2  0  0  0  0
  1  2  1  0  0  0  0
  1 23  1  0  0  0  0
  2  3  2  0  0  0  0
  2 24  1  0  0  0  0
  3  4  1  0  0  0  0
  3 25  1  0  0  0  0
  4 10  1  0  0  0  0
  4  5  2  0  0  0  0
  5  6  1  0  0  0  0
  5  7  1  0  0  0  0
  6 26  1  0  0  0  0
  7  8  2  0  0  0  0
  7  9  1  0  0  0  0
  9 10  1  0  0  0  0
  9 27  1  0  0  0  0
 10 11  1  0  0  0  0
 10 22  1  6  0  0  0
 11 16  2  0  0  0  0
 11 12  1  0  0  0  0
 12 13  2  0  0  0  0
 12 28  1  0  0  0  0
 13 14  1  0  0  0  0
 13 29  1  0  0  0  0
 14 15  2  0  0  0  0
 14 21  1  0  0  0  0
 15 16  1  0  0  0  0
 15 17  1  0  0  0  0
 16 30  1  0  0  0  0
 17 18  2  0  0  0  0
 17 19  2  0  0  0  0
 17 20  1  0  0  0  0
 20 31  1  0  0  0  0
 20 32  1  0  0  0  0
 22 33  1  0  0  0  0
M  END
$$$$
