ZINC03830990
 OpenBabel08292219463D

 26 26  0  0  1  0  0  0  0  0999 V2000
   -0.0187    1.5258    0.0104 C   0  0  0  0  0  0  0  0  0  0  0  0
    0.0021   -0.0041    0.0020 C   0  0  0  0  0  0  0  0  0  0  0  0
    0.7182   -0.4975   -1.2568 C   0  0  2  0  0  0  0  0  0  0  0  0
    0.2444   -0.0644   -2.1377 H   0  0  0  0  0  0  0  0  0  0  0  0
    0.6316   -2.0003   -1.3275 C   0  0  0  0  0  0  0  0  0  0  0  0
    1.6452   -2.6663   -1.3373 O   0  0  0  0  0  0  0  0  0  0  0  0
   -0.5721   -2.6043   -1.3798 N   0  0  0  0  0  0  0  0  0  0  0  0
    2.1249   -0.0911   -1.2094 N   0  0  0  0  0  0  0  0  0  0  0  0
    2.7713    0.7728   -2.2043 C   0  0  0  0  0  0  0  0  0  0  0  0
    4.0707    1.2721   -1.5345 C   0  0  0  0  0  0  0  0  0  0  0  0
    4.3492    0.1481   -0.5098 C   0  0  0  0  0  0  0  0  0  0  0  0
    2.9880   -0.4568   -0.2459 C   0  0  0  0  0  0  0  0  0  0  0  0
    2.7157   -1.1701    0.6964 O   0  0  0  0  0  0  0  0  0  0  0  0
    1.0039    1.9031    0.0027 H   0  0  0  0  0  0  0  0  0  0  0  0
   -0.5459    1.8868   -0.8726 H   0  0  0  0  0  0  0  0  0  0  0  0
   -0.5289    1.8773    0.9072 H   0  0  0  0  0  0  0  0  0  0  0  0
    0.5293   -0.3651    0.8851 H   0  0  0  0  0  0  0  0  0  0  0  0
   -1.0205   -0.3814    0.0098 H   0  0  0  0  0  0  0  0  0  0  0  0
   -1.3827   -2.0716   -1.3720 H   0  0  0  0  0  0  0  0  0  0  0  0
   -0.6278   -3.5716   -1.4254 H   0  0  0  0  0  0  0  0  0  0  0  0
    3.0053    0.2030   -3.1035 H   0  0  0  0  0  0  0  0  0  0  0  0
    2.1249    1.6158   -2.4486 H   0  0  0  0  0  0  0  0  0  0  0  0
    4.8800    1.3471   -2.2608 H   0  0  0  0  0  0  0  0  0  0  0  0
    3.9092    2.2262   -1.0327 H   0  0  0  0  0  0  0  0  0  0  0  0
    5.0255   -0.5947   -0.9328 H   0  0  0  0  0  0  0  0  0  0  0  0
    4.7636    0.5635    0.4088 H   0  0  0  0  0  0  0  0  0  0  0  0
  1  2  1  0  0  0  0
  1 14  1  0  0  0  0
  1 15  1  0  0  0  0
  1 16  1  0  0  0  0
  2  3  1  0  0  0  0
  2 17  1  0  0  0  0
  2 18  1  0  0  0  0
  3  4  1  6  0  0  0
  3  5  1  0  0  0  0
  3  8  1  0  0  0  0
  5  6  2  0  0  0  0
  5  7  1  0  0  0  0
  7 19  1  0  0  0  0
  7 20  1  0  0  0  0
  8 12  1  0  0  0  0
  8  9  1  0  0  0  0
  9 10  1  0  0  0  0
  9 21  1  0  0  0  0
  9 22  1  0  0  0  0
 10 11  1  0  0  0  0
 10 23  1  0  0  0  0
 10 24  1  0  0  0  0
 11 12  1  0  0  0  0
 11 25  1  0  0  0  0
 11 26  1  0  0  0  0
 12 13  2  0  0  0  0
M  END
$$$$
