ZINC01532525
 OpenBabel08292219463D

 27 26  0  0  1  0  0  0  0  0999 V2000
   -0.0187    1.5258    0.0104 C   0  0  0  0  0  0  0  0  0  0  0  0
    0.0021   -0.0041    0.0020 C   0  0  0  0  0  0  0  0  0  0  0  0
   -1.4333   -0.5336    0.0129 C   0  0  1  0  0  0  0  0  0  0  0  0
   -1.9862   -0.1019   -0.8214 H   0  0  0  0  0  0  0  0  0  0  0  0
   -1.4159   -2.0348   -0.1192 C   0  0  0  0  0  0  0  0  0  0  0  0
   -1.3670   -2.7340    0.8784 O   0  0  0  0  0  0  0  0  0  0  0  0
   -1.4508   -2.5500   -1.2236 O   0  0  0  0  0  1  0  0  0  0  0  0
   -2.0833   -0.1607    1.2764 N   0  3  0  0  0  0  0  0  0  0  0  0
    1.4167    2.0553   -0.0004 C   0  0  0  0  0  0  0  0  0  0  0  0
    1.3968    3.5202    0.0076 N   0  0  0  0  0  0  0  0  0  0  0  0
    2.5720    4.2202    0.0002 C   0  0  0  0  0  0  0  0  0  0  0  0
    2.5540    5.5520    0.0075 N   0  0  0  0  0  4  0  0  0  0  0  0
    3.7344    3.5700   -0.0144 N   0  0  0  0  0  0  0  0  0  0  0  0
   -0.5459    1.8868   -0.8726 H   0  0  0  0  0  0  0  0  0  0  0  0
   -0.5289    1.8773    0.9072 H   0  0  0  0  0  0  0  0  0  0  0  0
    0.5123   -0.3556   -0.8948 H   0  0  0  0  0  0  0  0  0  0  0  0
    0.5293   -0.3651    0.8851 H   0  0  0  0  0  0  0  0  0  0  0  0
   -2.0949    0.8443    1.3648 H   0  0  0  0  0  0  0  0  0  0  0  0
   -3.0299   -0.5100    1.2835 H   0  0  0  0  0  0  0  0  0  0  0  0
    1.9439    1.6943    0.8826 H   0  0  0  0  0  0  0  0  0  0  0  0
    1.9269    1.7038   -0.8972 H   0  0  0  0  0  0  0  0  0  0  0  0
    0.5503    3.9937    0.0183 H   0  0  0  0  0  0  0  0  0  0  0  0
    1.7074    6.0255    0.0181 H   0  0  0  0  0  0  0  0  0  0  0  0
    3.7475    2.6001   -0.0198 H   0  0  0  0  0  0  0  0  0  0  0  0
    4.5677    4.0664   -0.0197 H   0  0  0  0  0  0  0  0  0  0  0  0
    3.3873    6.0484    0.0022 H   0  0  0  0  0  0  0  0  0  0  0  0
   -1.5715   -0.5604    2.0487 H   0  0  0  0  0  0  0  0  0  0  0  0
  1  2  1  0  0  0  0
  1  9  1  0  0  0  0
  1 14  1  0  0  0  0
  1 15  1  0  0  0  0
  2  3  1  0  0  0  0
  2 16  1  0  0  0  0
  2 17  1  0  0  0  0
  3  4  1  6  0  0  0
  3  5  1  0  0  0  0
  3  8  1  0  0  0  0
  5  6  2  0  0  0  0
  5  7  1  0  0  0  0
  8 18  1  0  0  0  0
  8 19  1  0  0  0  0
  8 27  1  0  0  0  0
  9 10  1  0  0  0  0
  9 20  1  0  0  0  0
  9 21  1  0  0  0  0
 10 11  1  0  0  0  0
 10 22  1  0  0  0  0
 11 12  2  0  0  0  0
 11 13  1  0  0  0  0
 12 23  1  0  0  0  0
 12 26  1  0  0  0  0
 13 24  1  0  0  0  0
 13 25  1  0  0  0  0
M  CHG  1   8   1
M  END
$$$$
