ZINC00016154
 OpenBabel08292219463D

 40 41  0  0  0  0  0  0  0  0999 V2000
    3.4348    2.3071    1.0827 C   0  0  0  0  0  0  0  0  0  0  0  0
    2.2161    1.3898    1.2017 C   0  0  0  0  0  0  0  0  0  0  0  0
    1.0709    2.0223    0.5720 O   0  0  0  0  0  0  0  0  0  0  0  0
   -0.0905    1.3408    0.5898 C   0  0  0  0  0  0  0  0  0  0  0  0
   -0.1452    0.2473    1.1172 O   0  0  0  0  0  0  0  0  0  0  0  0
   -1.1906    1.8690    0.0179 N   0  0  0  0  0  0  0  0  0  0  0  0
   -2.3682    1.1090   -0.0737 C   0  0  0  0  0  0  0  0  0  0  0  0
   -2.3018   -0.2756   -0.0737 C   0  0  0  0  0  0  0  0  0  0  0  0
   -3.4598   -1.0245   -0.1633 C   0  0  0  0  0  0  0  0  0  0  0  0
   -4.6933   -0.3925   -0.2544 C   0  0  0  0  0  0  0  0  0  0  0  0
   -4.7655    0.9937   -0.2552 C   0  0  0  0  0  0  0  0  0  0  0  0
   -3.6053    1.7468   -0.1587 C   0  0  0  0  0  0  0  0  0  0  0  0
   -3.6752    3.1441   -0.1525 N   0  0  0  0  0  0  0  0  0  0  0  0
   -5.8636   -1.1535   -0.3459 N   0  0  0  0  0  0  0  0  0  0  0  0
   -5.7879   -2.6165   -0.3456 C   0  0  0  0  0  0  0  0  0  0  0  0
   -7.1768   -3.1914   -0.4530 C   0  0  0  0  0  0  0  0  0  0  0  0
   -7.9016   -3.4646    0.6921 C   0  0  0  0  0  0  0  0  0  0  0  0
   -9.1773   -3.9873    0.5948 C   0  0  0  0  0  0  0  0  0  0  0  0
   -9.7252   -4.2472   -0.6499 C   0  0  0  0  0  0  0  0  0  0  0  0
   -8.9963   -3.9781   -1.7959 C   0  0  0  0  0  0  0  0  0  0  0  0
   -7.7229   -3.4505   -1.6963 C   0  0  0  0  0  0  0  0  0  0  0  0
  -10.9704   -4.7626   -0.7462 F   0  0  0  0  0  0  0  0  0  0  0  0
    3.6525    2.4873    0.0299 H   0  0  0  0  0  0  0  0  0  0  0  0
    3.2256    3.2553    1.5779 H   0  0  0  0  0  0  0  0  0  0  0  0
    4.2946    1.8323    1.5554 H   0  0  0  0  0  0  0  0  0  0  0  0
    1.9984    1.2096    2.2544 H   0  0  0  0  0  0  0  0  0  0  0  0
    2.4254    0.4416    0.7064 H   0  0  0  0  0  0  0  0  0  0  0  0
   -1.1691    2.7740   -0.3306 H   0  0  0  0  0  0  0  0  0  0  0  0
   -1.3440   -0.7697   -0.0034 H   0  0  0  0  0  0  0  0  0  0  0  0
   -3.4056   -2.1032   -0.1629 H   0  0  0  0  0  0  0  0  0  0  0  0
   -5.7246    1.4851   -0.3261 H   0  0  0  0  0  0  0  0  0  0  0  0
   -2.8627    3.6701   -0.0890 H   0  0  0  0  0  0  0  0  0  0  0  0
   -4.5362    3.5868   -0.2118 H   0  0  0  0  0  0  0  0  0  0  0  0
   -6.7252   -0.7124   -0.4096 H   0  0  0  0  0  0  0  0  0  0  0  0
   -5.1902   -2.9496   -1.1941 H   0  0  0  0  0  0  0  0  0  0  0  0
   -5.3247   -2.9562    0.5808 H   0  0  0  0  0  0  0  0  0  0  0  0
   -7.4724   -3.2657    1.6630 H   0  0  0  0  0  0  0  0  0  0  0  0
   -9.7449   -4.1969    1.4893 H   0  0  0  0  0  0  0  0  0  0  0  0
   -9.4229   -4.1800   -2.7674 H   0  0  0  0  0  0  0  0  0  0  0  0
   -7.1543   -3.2401   -2.5900 H   0  0  0  0  0  0  0  0  0  0  0  0
  1  2  1  0  0  0  0
  1 23  1  0  0  0  0
  1 24  1  0  0  0  0
  1 25  1  0  0  0  0
  2  3  1  0  0  0  0
  2 26  1  0  0  0  0
  2 27  1  0  0  0  0
  3  4  1  0  0  0  0
  4  5  2  0  0  0  0
  4  6  1  0  0  0  0
  6  7  1  0  0  0  0
  6 28  1  0  0  0  0
  7 12  2  0  0  0  0
  7  8  1  0  0  0  0
  8  9  2  0  0  0  0
  8 29  1  0  0  0  0
  9 10  1  0  0  0  0
  9 30  1  0  0  0  0
 10 11  2  0  0  0  0
 10 14  1  0  0  0  0
 11 12  1  0  0  0  0
 11 31  1  0  0  0  0
 12 13  1  0  0  0  0
 13 32  1  0  0  0  0
 13 33  1  0  0  0  0
 14 15  1  0  0  0  0
 14 34  1  0  0  0  0
 15 16  1  0  0  0  0
 15 35  1  0  0  0  0
 15 36  1  0  0  0  0
 16 21  2  0  0  0  0
 16 17  1  0  0  0  0
 17 18  2  0  0  0  0
 17 37  1  0  0  0  0
 18 19  1  0  0  0  0
 18 38  1  0  0  0  0
 19 20  2  0  0  0  0
 19 22  1  0  0  0  0
 20 21  1  0  0  0  0
 20 39  1  0  0  0  0
 21 40  1  0  0  0  0
M  END
$$$$
