ZINC35395414
 OpenBabel08292219463D

 46 48  0  0  1  0  0  0  0  0999 V2000
    2.2588   -3.8701    0.3359 C   0  0  0  0  0  0  0  0  0  0  0  0
    1.1923   -2.8153    0.1914 C   0  0  0  0  0  0  0  0  0  0  0  0
    1.5025   -1.6513    0.0980 O   0  0  0  0  0  0  0  0  0  0  0  0
   -0.1024   -3.1690    0.1664 O   0  0  0  0  0  0  0  0  0  0  0  0
   -1.0596   -2.1172    0.0270 C   0  0  0  0  0  0  0  0  0  0  0  0
   -2.4401   -2.7080   -0.1005 C   0  0  0  0  0  0  0  0  0  0  0  0
   -3.4337   -1.8398   -0.2207 C   0  0  0  0  0  0  0  0  0  0  0  0
   -4.7565   -2.2823   -0.3937 N   0  0  0  0  0  0  0  0  0  0  0  0
   -5.2852   -3.6463   -0.1320 C   0  0  1  0  0  0  0  0  0  0  0  0
   -5.5721   -3.8513    0.8994 H   0  0  0  0  0  0  0  0  0  0  0  0
   -6.4248   -3.2747   -1.0564 C   0  0  1  0  0  0  0  0  0  0  0  0
   -7.4144   -3.4552   -0.6366 H   0  0  0  0  0  0  0  0  0  0  0  0
   -5.9242   -1.8692   -0.8641 C   0  0  0  0  0  0  0  0  0  0  0  0
   -6.4062   -0.7742   -1.0638 O   0  0  0  0  0  0  0  0  0  0  0  0
   -6.2762   -3.7838   -2.4220 N   0  0  0  0  0  0  0  0  0  0  0  0
   -7.3661   -3.9820   -3.1896 C   0  0  0  0  0  0  0  0  0  0  0  0
   -8.4699   -3.7390   -2.7498 O   0  0  0  0  0  0  0  0  0  0  0  0
   -7.2133   -4.5057   -4.5944 C   0  0  1  0  0  0  0  0  0  0  0  0
   -6.3489   -4.0371   -5.0648 H   0  0  0  0  0  0  0  0  0  0  0  0
   -7.0157   -5.9992   -4.5550 C   0  0  0  0  0  0  0  0  0  0  0  0
   -8.1050   -6.8367   -4.4039 C   0  0  0  0  0  0  0  0  0  0  0  0
   -7.9238   -8.2067   -4.3678 C   0  0  0  0  0  0  0  0  0  0  0  0
   -6.6533   -8.7391   -4.4833 C   0  0  0  0  0  0  0  0  0  0  0  0
   -5.5641   -7.9016   -4.6353 C   0  0  0  0  0  0  0  0  0  0  0  0
   -5.7458   -6.5318   -4.6757 C   0  0  0  0  0  0  0  0  0  0  0  0
   -8.4219   -4.1919   -5.3682 N   0  0  0  0  0  0  0  0  0  0  0  0
   -4.0531   -4.8087   -0.8124 S   0  0  0  0  0  0  0  0  0  0  0  0
   -2.5172   -4.2005   -0.0813 C   0  0  0  0  0  0  0  0  0  0  0  0
   -3.1492   -0.3964   -0.1722 C   0  0  0  0  0  0  0  0  0  0  0  0
   -1.9919   -0.0022   -0.1252 O   0  0  0  0  0  0  0  0  0  0  0  0
   -4.0701    0.4091   -0.1788 O   0  0  0  0  0  1  0  0  0  0  0  0
    3.2406   -3.3965    0.3359 H   0  0  0  0  0  0  0  0  0  0  0  0
    2.1144   -4.4069    1.2735 H   0  0  0  0  0  0  0  0  0  0  0  0
    2.1930   -4.5699   -0.4973 H   0  0  0  0  0  0  0  0  0  0  0  0
   -1.0203   -1.4716    0.9044 H   0  0  0  0  0  0  0  0  0  0  0  0
   -0.8306   -1.5332   -0.8644 H   0  0  0  0  0  0  0  0  0  0  0  0
   -5.3934   -3.9781   -2.7738 H   0  0  0  0  0  0  0  0  0  0  0  0
   -9.0976   -6.4208   -4.3137 H   0  0  0  0  0  0  0  0  0  0  0  0
   -8.7748   -8.8610   -4.2490 H   0  0  0  0  0  0  0  0  0  0  0  0
   -6.5117   -9.8093   -4.4544 H   0  0  0  0  0  0  0  0  0  0  0  0
   -4.5715   -8.3175   -4.7252 H   0  0  0  0  0  0  0  0  0  0  0  0
   -4.8953   -5.8776   -4.7983 H   0  0  0  0  0  0  0  0  0  0  0  0
   -9.2378   -4.6153   -4.9520 H   0  0  0  0  0  0  0  0  0  0  0  0
   -8.5412   -3.1945   -5.4639 H   0  0  0  0  0  0  0  0  0  0  0  0
   -1.6703   -4.6071   -0.6340 H   0  0  0  0  0  0  0  0  0  0  0  0
   -2.4646   -4.5457    0.9512 H   0  0  0  0  0  0  0  0  0  0  0  0
  1  2  1  0  0  0  0
  1 32  1  0  0  0  0
  1 33  1  0  0  0  0
  1 34  1  0  0  0  0
  2  3  2  0  0  0  0
  2  4  1  0  0  0  0
  4  5  1  0  0  0  0
  5  6  1  0  0  0  0
  5 35  1  0  0  0  0
  5 36  1  0  0  0  0
  6 28  1  0  0  0  0
  6  7  2  0  0  0  0
  7  8  1  0  0  0  0
  7 29  1  0  0  0  0
  8 13  1  0  0  0  0
  8  9  1  0  0  0  0
  9 10  1  1  0  0  0
  9 11  1  0  0  0  0
  9 27  1  0  0  0  0
 11 12  1  1  0  0  0
 11 13  1  0  0  0  0
 11 15  1  0  0  0  0
 13 14  2  0  0  0  0
 15 16  1  0  0  0  0
 15 37  1  0  0  0  0
 16 17  2  0  0  0  0
 16 18  1  0  0  0  0
 18 19  1  6  0  0  0
 18 20  1  0  0  0  0
 18 26  1  0  0  0  0
 20 25  2  0  0  0  0
 20 21  1  0  0  0  0
 21 22  2  0  0  0  0
 21 38  1  0  0  0  0
 22 23  1  0  0  0  0
 22 39  1  0  0  0  0
 23 24  2  0  0  0  0
 23 40  1  0  0  0  0
 24 25  1  0  0  0  0
 24 41  1  0  0  0  0
 25 42  1  0  0  0  0
 26 43  1  0  0  0  0
 26 44  1  0  0  0  0
 27 28  1  0  0  0  0
 28 45  1  0  0  0  0
 28 46  1  0  0  0  0
 29 30  2  0  0  0  0
 29 31  1  0  0  0  0
M  END
$$$$
