ZINC37868619
 OpenBabel08292219463D

 40 42  0  0  1  0  0  0  0  0999 V2000
    0.2462   -0.5251    1.1945 C   0  0  0  0  0  0  0  0  0  0  0  0
   -0.3998   -0.0151   -0.0952 C   0  0  2  0  0  0  0  0  0  0  0  0
   -1.4288   -0.3704   -0.1513 H   0  0  0  0  0  0  0  0  0  0  0  0
    0.3861   -0.5363   -1.3000 C   0  0  0  0  0  0  0  0  0  0  0  0
    0.2941   -1.9976   -1.3480 N   0  0  0  0  0  0  0  0  0  0  0  0
    1.3258   -2.7248   -0.7605 C   0  0  0  0  0  0  0  0  0  0  0  0
    2.5725   -2.1238   -0.6170 C   0  0  0  0  0  0  0  0  0  0  0  0
    3.6174   -2.8140   -0.0334 C   0  0  0  0  0  0  0  0  0  0  0  0
    3.4331   -4.1088    0.4136 C   0  0  0  0  0  0  0  0  0  0  0  0
    2.1991   -4.7171    0.2748 C   0  0  0  0  0  0  0  0  0  0  0  0
    1.1461   -4.0306   -0.3126 C   0  0  0  0  0  0  0  0  0  0  0  0
   -0.4165   -4.8244   -0.4920 S   0  0  0  0  0  0  0  0  0  0  0  0
   -1.2592   -3.8348   -1.6789 C   0  0  0  0  0  0  0  0  0  0  0  0
   -0.8156   -2.5471   -1.9696 C   0  0  0  0  0  0  0  0  0  0  0  0
   -1.4679   -1.8192   -2.8698 N   0  0  0  0  0  0  0  0  0  0  0  0
   -2.5355   -2.2724   -3.4984 C   0  0  0  0  0  0  0  0  0  0  0  0
   -3.0284   -3.5359   -3.2478 C   0  0  0  0  0  0  0  0  0  0  0  0
   -2.3776   -4.3393   -2.3271 C   0  0  0  0  0  0  0  0  0  0  0  0
   -0.3880    1.4539   -0.1012 N   0  3  0  0  0  0  0  0  0  0  0  0
   -1.0366    1.9438   -1.3248 C   0  0  0  0  0  0  0  0  0  0  0  0
   -1.1158    1.9541    1.0728 C   0  0  0  0  0  0  0  0  0  0  0  0
    0.2375   -1.6150    1.1989 H   0  0  0  0  0  0  0  0  0  0  0  0
    1.2752   -0.1698    1.2506 H   0  0  0  0  0  0  0  0  0  0  0  0
   -0.3137   -0.1538    2.0528 H   0  0  0  0  0  0  0  0  0  0  0  0
   -0.0307   -0.1157   -2.2152 H   0  0  0  0  0  0  0  0  0  0  0  0
    1.4312   -0.2409   -1.2075 H   0  0  0  0  0  0  0  0  0  0  0  0
    2.7243   -1.1124   -0.9640 H   0  0  0  0  0  0  0  0  0  0  0  0
    4.5819   -2.3401    0.0737 H   0  0  0  0  0  0  0  0  0  0  0  0
    4.2519   -4.6449    0.8703 H   0  0  0  0  0  0  0  0  0  0  0  0
    2.0549   -5.7290    0.6236 H   0  0  0  0  0  0  0  0  0  0  0  0
   -3.0324   -1.6429   -4.2217 H   0  0  0  0  0  0  0  0  0  0  0  0
   -3.9044   -3.8954   -3.7672 H   0  0  0  0  0  0  0  0  0  0  0  0
   -2.7397   -5.3336   -2.1112 H   0  0  0  0  0  0  0  0  0  0  0  0
   -1.1532    3.0260   -1.2659 H   0  0  0  0  0  0  0  0  0  0  0  0
   -0.4213    1.6911   -2.1883 H   0  0  0  0  0  0  0  0  0  0  0  0
   -2.0166    1.4779   -1.4281 H   0  0  0  0  0  0  0  0  0  0  0  0
   -0.6345    1.5906    1.9807 H   0  0  0  0  0  0  0  0  0  0  0  0
   -1.1070    3.0441    1.0684 H   0  0  0  0  0  0  0  0  0  0  0  0
   -2.1458    1.5989    1.0403 H   0  0  0  0  0  0  0  0  0  0  0  0
    0.5654    1.7827   -0.0711 H   0  0  0  0  0  0  0  0  0  0  0  0
  1  2  1  0  0  0  0
  1 22  1  0  0  0  0
  1 23  1  0  0  0  0
  1 24  1  0  0  0  0
  2  3  1  6  0  0  0
  2  4  1  0  0  0  0
  2 19  1  0  0  0  0
  4  5  1  0  0  0  0
  4 25  1  0  0  0  0
  4 26  1  0  0  0  0
  5 14  1  0  0  0  0
  5  6  1  0  0  0  0
  6 11  2  0  0  0  0
  6  7  1  0  0  0  0
  7  8  2  0  0  0  0
  7 27  1  0  0  0  0
  8  9  1  0  0  0  0
  8 28  1  0  0  0  0
  9 10  2  0  0  0  0
  9 29  1  0  0  0  0
 10 11  1  0  0  0  0
 10 30  1  0  0  0  0
 11 12  1  0  0  0  0
 12 13  1  0  0  0  0
 13 18  2  0  0  0  0
 13 14  1  0  0  0  0
 14 15  2  0  0  0  0
 15 16  1  0  0  0  0
 16 17  2  0  0  0  0
 16 31  1  0  0  0  0
 17 18  1  0  0  0  0
 17 32  1  0  0  0  0
 18 33  1  0  0  0  0
 19 20  1  0  0  0  0
 19 21  1  0  0  0  0
 19 40  1  0  0  0  0
 20 34  1  0  0  0  0
 20 35  1  0  0  0  0
 20 36  1  0  0  0  0
 21 37  1  0  0  0  0
 21 38  1  0  0  0  0
 21 39  1  0  0  0  0
M  CHG  1  19   1
M  END
$$$$
