ZINC01869694
 OpenBabel08292219463D

 30 32  0  0  1  0  0  0  0  0999 V2000
   -0.0187    1.5258    0.0104 C   0  0  0  0  0  0  0  0  0  0  0  0
    0.0021   -0.0041    0.0020 C   0  0  2  0  0  0  0  0  0  0  0  0
    0.5293   -0.3651    0.8851 H   0  0  0  0  0  0  0  0  0  0  0  0
    0.7074   -0.4901   -1.2379 C   0  0  0  0  0  0  0  0  0  0  0  0
    0.2153   -0.1466   -2.4878 C   0  0  0  0  0  0  0  0  0  0  0  0
    0.8517   -0.5850   -3.6287 C   0  0  0  0  0  0  0  0  0  0  0  0
    1.9935   -1.3761   -3.5236 C   0  0  0  0  0  0  0  0  0  0  0  0
    2.8921   -1.9964   -4.5144 C   0  0  0  0  0  0  0  0  0  0  0  0
    2.9181   -2.0109   -5.9072 C   0  0  0  0  0  0  0  0  0  0  0  0
    3.9147   -2.6994   -6.5663 C   0  0  0  0  0  0  0  0  0  0  0  0
    4.8890   -3.3764   -5.8468 C   0  0  0  0  0  0  0  0  0  0  0  0
    4.8740   -3.3695   -4.4688 C   0  0  0  0  0  0  0  0  0  0  0  0
    3.8766   -2.6799   -3.7860 C   0  0  0  0  0  0  0  0  0  0  0  0
    3.6208   -2.5056   -2.4370 N   0  0  0  0  0  0  0  0  0  0  0  0
    4.1561   -2.8775   -1.7186 H   0  0  0  0  0  0  0  0  0  0  0  0
    2.4928   -1.7246   -2.2600 C   0  0  0  0  0  0  0  0  0  0  0  0
    1.8392   -1.2674   -1.1195 C   0  0  0  0  0  0  0  0  0  0  0  0
    3.9502   -2.7196   -8.3019 Cl  0  0  0  0  0  0  0  0  0  0  0  0
   -1.4117   -0.5257    0.0127 C   0  0  0  0  0  0  0  0  0  0  0  0
   -1.8097   -1.2271   -0.9017 O   0  0  0  0  0  0  0  0  0  0  0  0
   -2.1576   -0.2463    0.9358 O   0  0  0  0  0  1  0  0  0  0  0  0
    1.0039    1.9031    0.0027 H   0  0  0  0  0  0  0  0  0  0  0  0
   -0.5459    1.8868   -0.8726 H   0  0  0  0  0  0  0  0  0  0  0  0
   -0.5289    1.8773    0.9072 H   0  0  0  0  0  0  0  0  0  0  0  0
   -0.6703    0.4665   -2.5675 H   0  0  0  0  0  0  0  0  0  0  0  0
    0.4664   -0.3165   -4.6013 H   0  0  0  0  0  0  0  0  0  0  0  0
    2.1601   -1.4851   -6.4688 H   0  0  0  0  0  0  0  0  0  0  0  0
    5.6654   -3.9137   -6.3711 H   0  0  0  0  0  0  0  0  0  0  0  0
    5.6369   -3.9000   -3.9183 H   0  0  0  0  0  0  0  0  0  0  0  0
    2.2167   -1.5255   -0.1411 H   0  0  0  0  0  0  0  0  0  0  0  0
  1  2  1  0  0  0  0
  1 22  1  0  0  0  0
  1 23  1  0  0  0  0
  1 24  1  0  0  0  0
  2  3  1  1  0  0  0
  2  4  1  0  0  0  0
  2 19  1  0  0  0  0
  4 17  2  0  0  0  0
  4  5  1  0  0  0  0
  5  6  2  0  0  0  0
  5 25  1  0  0  0  0
  6  7  1  0  0  0  0
  6 26  1  0  0  0  0
  7 16  2  0  0  0  0
  7  8  1  0  0  0  0
  8 13  2  0  0  0  0
  8  9  1  0  0  0  0
  9 10  2  0  0  0  0
  9 27  1  0  0  0  0
 10 11  1  0  0  0  0
 10 18  1  0  0  0  0
 11 12  2  0  0  0  0
 11 28  1  0  0  0  0
 12 13  1  0  0  0  0
 12 29  1  0  0  0  0
 13 14  1  0  0  0  0
 14 15  1  0  0  0  0
 14 16  1  0  0  0  0
 16 17  1  0  0  0  0
 17 30  1  0  0  0  0
 19 20  2  0  0  0  0
 19 21  1  0  0  0  0
M  END
$$$$
