ZINC03914596
 OpenBabel08292219463D

100104  0  0  1  0  0  0  0  0999 V2000
   -4.4157    0.4364   -1.9776 C   0  0  0  0  0  0  0  0  0  0  0  0
   -5.2799    0.3860   -0.7161 C   0  0  0  0  0  0  0  0  0  0  0  0
   -6.3406   -0.7062   -0.8678 C   0  0  0  0  0  0  0  0  0  0  0  0
   -5.9660    1.7384   -0.5135 C   0  0  0  0  0  0  0  0  0  0  0  0
   -4.4350    0.0885    0.4431 N   0  0  0  0  0  0  0  0  0  0  0  0
   -3.4261    0.9192    0.7726 C   0  0  0  0  0  0  0  0  0  0  0  0
   -3.2178    1.9130    0.1094 O   0  0  0  0  0  0  0  0  0  0  0  0
   -2.5570    0.6132    1.9651 C   0  0  2  0  0  0  0  0  0  0  0  0
   -2.3553   -0.4574    2.0016 H   0  0  0  0  0  0  0  0  0  0  0  0
   -3.2796    1.0397    3.2453 C   0  0  0  0  0  0  0  0  0  0  0  0
   -2.3813    0.7506    4.4504 C   0  0  2  0  0  0  0  0  0  0  0  0
   -2.1891   -0.3208    4.5073 H   0  0  0  0  0  0  0  0  0  0  0  0
   -3.0736    1.2115    5.7325 C   0  0  0  0  0  0  0  0  0  0  0  0
   -3.3386    2.7166    5.6608 C   0  0  0  0  0  0  0  0  0  0  0  0
   -2.0097    3.4586    5.5027 C   0  0  0  0  0  0  0  0  0  0  0  0
   -1.3231    3.0028    4.2142 C   0  0  0  0  0  0  0  0  0  0  0  0
   -1.0558    1.4973    4.2798 C   0  0  2  0  0  0  0  0  0  0  0  0
   -0.3980    1.2713    5.1191 H   0  0  0  0  0  0  0  0  0  0  0  0
   -0.3950    1.0475    2.9730 C   0  0  0  0  0  0  0  0  0  0  0  0
   -0.6344    1.0606    0.5640 C   0  0  0  0  0  0  0  0  0  0  0  0
   -0.3845   -0.4439    0.4419 C   0  0  2  0  0  0  0  0  0  0  0  0
    0.1831   -0.7892    1.3060 H   0  0  0  0  0  0  0  0  0  0  0  0
    0.4084   -0.7272   -0.8356 C   0  0  2  0  0  0  0  0  0  0  0  0
    1.3225   -0.1334   -0.8350 H   0  0  0  0  0  0  0  0  0  0  0  0
   -0.4392   -0.3574   -2.0545 C   0  0  0  0  0  0  0  0  0  0  0  0
    0.3837   -0.5199   -3.3065 C   0  0  0  0  0  0  0  0  0  0  0  0
    1.1207    0.5440   -3.7922 C   0  0  0  0  0  0  0  0  0  0  0  0
    1.8793    0.3935   -4.9379 C   0  0  0  0  0  0  0  0  0  0  0  0
    1.8930   -0.8180   -5.6036 C   0  0  0  0  0  0  0  0  0  0  0  0
    1.1515   -1.8802   -5.1211 C   0  0  0  0  0  0  0  0  0  0  0  0
    0.3970   -1.7312   -3.9725 C   0  0  0  0  0  0  0  0  0  0  0  0
    0.7506   -2.1505   -0.8924 N   0  0  0  0  0  0  0  0  0  0  0  0
    1.8228   -2.5581   -1.6000 C   0  0  0  0  0  0  0  0  0  0  0  0
    2.5044   -1.7465   -2.1898 O   0  0  0  0  0  0  0  0  0  0  0  0
    2.1749   -4.0222   -1.6585 C   0  0  2  0  0  0  0  0  0  0  0  0
    1.3448   -4.5784   -2.0942 H   0  0  0  0  0  0  0  0  0  0  0  0
    2.4476   -4.5380   -0.2441 C   0  0  0  0  0  0  0  0  0  0  0  0
    3.6445   -3.8238    0.3290 C   0  0  0  0  0  0  0  0  0  0  0  0
    4.1765   -2.9325   -0.2983 O   0  0  0  0  0  0  0  0  0  0  0  0
    4.1237   -4.1754    1.5386 N   0  0  0  0  0  0  0  0  0  0  0  0
    3.3714   -4.2042   -2.4838 N   0  0  0  0  0  0  0  0  0  0  0  0
    3.5663   -5.3642   -3.1417 C   0  0  0  0  0  0  0  0  0  0  0  0
    2.7974   -6.2910   -2.9798 O   0  0  0  0  0  0  0  0  0  0  0  0
    4.7189   -5.5095   -4.0631 C   0  0  0  0  0  0  0  0  0  0  0  0
    4.9097   -6.7258   -4.7354 C   0  0  0  0  0  0  0  0  0  0  0  0
    5.9634   -6.8703   -5.5911 C   0  0  0  0  0  0  0  0  0  0  0  0
    6.8387   -5.7810   -5.7598 C   0  0  0  0  0  0  0  0  0  0  0  0
    7.9469   -5.8623   -6.6183 C   0  0  0  0  0  0  0  0  0  0  0  0
    8.7718   -4.7882   -6.7567 C   0  0  0  0  0  0  0  0  0  0  0  0
    8.5326   -3.6063   -6.0566 C   0  0  0  0  0  0  0  0  0  0  0  0
    7.4699   -3.4911   -5.2158 C   0  0  0  0  0  0  0  0  0  0  0  0
    6.5928   -4.5795   -5.0455 C   0  0  0  0  0  0  0  0  0  0  0  0
    5.5440   -4.4940   -4.2277 N   0  0  0  0  0  0  0  0  0  0  0  0
   -1.6359   -1.1317    0.3881 O   0  0  0  0  0  0  0  0  0  0  0  0
   -3.9269   -0.5271   -2.1219 H   0  0  0  0  0  0  0  0  0  0  0  0
   -5.0443    0.6577   -2.8401 H   0  0  0  0  0  0  0  0  0  0  0  0
   -3.6601    1.2145   -1.8695 H   0  0  0  0  0  0  0  0  0  0  0  0
   -6.9563   -0.7422    0.0309 H   0  0  0  0  0  0  0  0  0  0  0  0
   -6.9692   -0.4849   -1.7303 H   0  0  0  0  0  0  0  0  0  0  0  0
   -5.8518   -1.6698   -1.0122 H   0  0  0  0  0  0  0  0  0  0  0  0
   -5.2104    2.5166   -0.4054 H   0  0  0  0  0  0  0  0  0  0  0  0
   -6.5946    1.9598   -1.3760 H   0  0  0  0  0  0  0  0  0  0  0  0
   -6.5817    1.7025    0.3852 H   0  0  0  0  0  0  0  0  0  0  0  0
   -4.6017   -0.7064    0.9736 H   0  0  0  0  0  0  0  0  0  0  0  0
   -4.2099    0.4800    3.3421 H   0  0  0  0  0  0  0  0  0  0  0  0
   -3.4991    2.1065    3.2024 H   0  0  0  0  0  0  0  0  0  0  0  0
   -4.0194    0.6815    5.8449 H   0  0  0  0  0  0  0  0  0  0  0  0
   -2.4333    0.9967    6.5880 H   0  0  0  0  0  0  0  0  0  0  0  0
   -3.9797    2.9327    4.8062 H   0  0  0  0  0  0  0  0  0  0  0  0
   -3.8308    3.0433    6.5769 H   0  0  0  0  0  0  0  0  0  0  0  0
   -2.1957    4.5315    5.4555 H   0  0  0  0  0  0  0  0  0  0  0  0
   -1.3667    3.2383    6.3549 H   0  0  0  0  0  0  0  0  0  0  0  0
   -0.3785    3.5344    4.0986 H   0  0  0  0  0  0  0  0  0  0  0  0
   -1.9680    3.2201    3.3628 H   0  0  0  0  0  0  0  0  0  0  0  0
   -0.2045   -0.0250    3.0121 H   0  0  0  0  0  0  0  0  0  0  0  0
    0.5468    1.5799    2.8398 H   0  0  0  0  0  0  0  0  0  0  0  0
    0.3162    1.5919    0.5156 H   0  0  0  0  0  0  0  0  0  0  0  0
   -1.2765    1.3898   -0.2530 H   0  0  0  0  0  0  0  0  0  0  0  0
   -1.3093   -1.0120   -2.1041 H   0  0  0  0  0  0  0  0  0  0  0  0
   -0.7680    0.6782   -1.9677 H   0  0  0  0  0  0  0  0  0  0  0  0
    1.1068    1.4917   -3.2744 H   0  0  0  0  0  0  0  0  0  0  0  0
    2.4584    1.2235   -5.3151 H   0  0  0  0  0  0  0  0  0  0  0  0
    2.4828   -0.9345   -6.5008 H   0  0  0  0  0  0  0  0  0  0  0  0
    1.1619   -2.8265   -5.6414 H   0  0  0  0  0  0  0  0  0  0  0  0
   -0.1823   -2.5611   -3.5955 H   0  0  0  0  0  0  0  0  0  0  0  0
    0.2055   -2.7996   -0.4207 H   0  0  0  0  0  0  0  0  0  0  0  0
    1.5773   -4.3510    0.3850 H   0  0  0  0  0  0  0  0  0  0  0  0
    2.6465   -5.6091   -0.2800 H   0  0  0  0  0  0  0  0  0  0  0  0
    3.6982   -4.8882    2.0403 H   0  0  0  0  0  0  0  0  0  0  0  0
    4.8941   -3.7157    1.9075 H   0  0  0  0  0  0  0  0  0  0  0  0
    4.0235   -3.4898   -2.5569 H   0  0  0  0  0  0  0  0  0  0  0  0
    4.2221   -7.5440   -4.5801 H   0  0  0  0  0  0  0  0  0  0  0  0
    6.1241   -7.7977   -6.1208 H   0  0  0  0  0  0  0  0  0  0  0  0
    8.1435   -6.7719   -7.1663 H   0  0  0  0  0  0  0  0  0  0  0  0
    9.6235   -4.8525   -7.4176 H   0  0  0  0  0  0  0  0  0  0  0  0
    9.2025   -2.7687   -6.1838 H   0  0  0  0  0  0  0  0  0  0  0  0
    7.2996   -2.5686   -4.6806 H   0  0  0  0  0  0  0  0  0  0  0  0
   -2.1948   -0.8738   -0.3577 H   0  0  0  0  0  0  0  0  0  0  0  0
   -1.2955    1.3757    1.8469 N   0  3  1  0  0  0  0  0  0  0  0  0
   -1.5097    2.3795    1.8738 H   0  0  0  0  0  0  0  0  0  0  0  0
  1  2  1  0  0  0  0
  1 55  1  0  0  0  0
  1 56  1  0  0  0  0
  1 57  1  0  0  0  0
  2  3  1  0  0  0  0
  2  4  1  0  0  0  0
  2  5  1  0  0  0  0
  3 58  1  0  0  0  0
  3 59  1  0  0  0  0
  3 60  1  0  0  0  0
  4 61  1  0  0  0  0
  4 62  1  0  0  0  0
  4 63  1  0  0  0  0
  5  6  1  0  0  0  0
  5 64  1  0  0  0  0
  6  7  2  0  0  0  0
  6  8  1  0  0  0  0
  8  9  1  1  0  0  0
  8 10  1  0  0  0  0
  8 99  1  0  0  0  0
 10 11  1  0  0  0  0
 10 65  1  0  0  0  0
 10 66  1  0  0  0  0
 11 12  1  1  0  0  0
 11 17  1  0  0  0  0
 11 13  1  0  0  0  0
 13 14  1  0  0  0  0
 13 67  1  0  0  0  0
 13 68  1  0  0  0  0
 14 15  1  0  0  0  0
 14 69  1  0  0  0  0
 14 70  1  0  0  0  0
 15 16  1  0  0  0  0
 15 71  1  0  0  0  0
 15 72  1  0  0  0  0
 16 17  1  0  0  0  0
 16 73  1  0  0  0  0
 16 74  1  0  0  0  0
 17 18  1  1  0  0  0
 17 19  1  0  0  0  0
 19 75  1  0  0  0  0
 19 76  1  0  0  0  0
 19 99  1  0  0  0  0
 20 21  1  0  0  0  0
 20 77  1  0  0  0  0
 20 78  1  0  0  0  0
 20 99  1  0  0  0  0
 21 22  1  1  0  0  0
 21 23  1  0  0  0  0
 21 54  1  0  0  0  0
 23 24  1  1  0  0  0
 23 25  1  0  0  0  0
 23 32  1  0  0  0  0
 25 26  1  0  0  0  0
 25 79  1  0  0  0  0
 25 80  1  0  0  0  0
 26 31  2  0  0  0  0
 26 27  1  0  0  0  0
 27 28  2  0  0  0  0
 27 81  1  0  0  0  0
 28 29  1  0  0  0  0
 28 82  1  0  0  0  0
 29 30  2  0  0  0  0
 29 83  1  0  0  0  0
 30 31  1  0  0  0  0
 30 84  1  0  0  0  0
 31 85  1  0  0  0  0
 32 33  1  0  0  0  0
 32 86  1  0  0  0  0
 33 34  2  0  0  0  0
 33 35  1  0  0  0  0
 35 36  1  6  0  0  0
 35 37  1  0  0  0  0
 35 41  1  0  0  0  0
 37 38  1  0  0  0  0
 37 87  1  0  0  0  0
 37 88  1  0  0  0  0
 38 39  2  0  0  0  0
 38 40  1  0  0  0  0
 40 89  1  0  0  0  0
 40 90  1  0  0  0  0
 41 42  1  0  0  0  0
 41 91  1  0  0  0  0
 42 43  2  0  0  0  0
 42 44  1  0  0  0  0
 44 53  2  0  0  0  0
 44 45  1  0  0  0  0
 45 46  2  0  0  0  0
 45 92  1  0  0  0  0
 46 47  1  0  0  0  0
 46 93  1  0  0  0  0
 47 52  2  0  0  0  0
 47 48  1  0  0  0  0
 48 49  2  0  0  0  0
 48 94  1  0  0  0  0
 49 50  1  0  0  0  0
 49 95  1  0  0  0  0
 50 51  2  0  0  0  0
 50 96  1  0  0  0  0
 51 52  1  0  0  0  0
 51 97  1  0  0  0  0
 52 53  1  0  0  0  0
 54 98  1  0  0  0  0
 99100  1  1  0  0  0
M  CHG  1  99   1
M  END
$$$$
