ZINC01530812
 OpenBabel08292219463D

 50 51  0  0  1  0  0  0  0  0999 V2000
   -4.1301   -2.9572    0.7995 C   0  0  0  0  0  0  0  0  0  0  0  0
   -2.9509   -3.8692    0.4550 C   0  0  0  0  0  0  0  0  0  0  0  0
   -2.0836   -3.2000   -0.6131 C   0  0  0  0  0  0  0  0  0  0  0  0
   -0.9044   -4.1120   -0.9576 C   0  0  0  0  0  0  0  0  0  0  0  0
   -0.0717   -3.4695   -1.9832 N   0  3  2  0  0  0  0  0  0  0  0  0
   -0.8375   -3.3515   -3.2298 C   0  0  0  0  0  0  0  0  0  0  0  0
   -0.0036   -2.6103   -4.2770 C   0  0  0  0  0  0  0  0  0  0  0  0
    1.2867   -3.3919   -4.5407 C   0  0  0  0  0  0  0  0  0  0  0  0
    2.0409   -3.5733   -3.2203 C   0  0  0  0  0  0  0  0  0  0  0  0
    1.1312   -4.2788   -2.2123 C   0  0  1  0  0  0  0  0  0  0  0  0
    0.8431   -5.2543   -2.6042 H   0  0  0  0  0  0  0  0  0  0  0  0
    1.8694   -4.4598   -0.9110 C   0  0  0  0  0  0  0  0  0  0  0  0
    1.7955   -3.6101   -0.0486 O   0  0  0  0  0  0  0  0  0  0  0  0
    2.6119   -5.5657   -0.7056 N   0  0  0  0  0  0  0  0  0  0  0  0
    3.2041   -5.7889    0.5424 C   0  0  0  0  0  0  0  0  0  0  0  0
    2.9388   -6.9606    1.2390 C   0  0  0  0  0  0  0  0  0  0  0  0
    3.5249   -7.1779    2.4705 C   0  0  0  0  0  0  0  0  0  0  0  0
    4.3753   -6.2302    3.0100 C   0  0  0  0  0  0  0  0  0  0  0  0
    4.6412   -5.0623    2.3191 C   0  0  0  0  0  0  0  0  0  0  0  0
    4.0630   -4.8417    1.0843 C   0  0  0  0  0  0  0  0  0  0  0  0
    4.3590   -3.5718    0.3288 C   0  0  0  0  0  0  0  0  0  0  0  0
    2.0118   -7.9937    0.6520 C   0  0  0  0  0  0  0  0  0  0  0  0
   -3.7554   -2.0066    1.1789 H   0  0  0  0  0  0  0  0  0  0  0  0
   -4.7269   -2.7814   -0.0954 H   0  0  0  0  0  0  0  0  0  0  0  0
   -4.7479   -3.4340    1.5604 H   0  0  0  0  0  0  0  0  0  0  0  0
   -2.3540   -4.0451    1.3499 H   0  0  0  0  0  0  0  0  0  0  0  0
   -3.3256   -4.8199    0.0756 H   0  0  0  0  0  0  0  0  0  0  0  0
   -2.6805   -3.0242   -1.5081 H   0  0  0  0  0  0  0  0  0  0  0  0
   -1.7089   -2.2494   -0.2337 H   0  0  0  0  0  0  0  0  0  0  0  0
   -0.3076   -4.2879   -0.0627 H   0  0  0  0  0  0  0  0  0  0  0  0
   -1.2791   -5.0627   -1.3371 H   0  0  0  0  0  0  0  0  0  0  0  0
   -1.0837   -4.3467   -3.6000 H   0  0  0  0  0  0  0  0  0  0  0  0
   -1.7570   -2.7978   -3.0399 H   0  0  0  0  0  0  0  0  0  0  0  0
   -0.5732   -2.5253   -5.2024 H   0  0  0  0  0  0  0  0  0  0  0  0
    0.2429   -1.6148   -3.9078 H   0  0  0  0  0  0  0  0  0  0  0  0
    1.0422   -4.3688   -4.9579 H   0  0  0  0  0  0  0  0  0  0  0  0
    1.9102   -2.8396   -5.2437 H   0  0  0  0  0  0  0  0  0  0  0  0
    2.9326   -4.1766   -3.3903 H   0  0  0  0  0  0  0  0  0  0  0  0
    2.3299   -2.5977   -2.8292 H   0  0  0  0  0  0  0  0  0  0  0  0
    2.7356   -6.2069   -1.4228 H   0  0  0  0  0  0  0  0  0  0  0  0
    3.3187   -8.0887    3.0129 H   0  0  0  0  0  0  0  0  0  0  0  0
    4.8324   -6.4025    3.9732 H   0  0  0  0  0  0  0  0  0  0  0  0
    5.3055   -4.3239    2.7433 H   0  0  0  0  0  0  0  0  0  0  0  0
    3.7221   -2.7700    0.7024 H   0  0  0  0  0  0  0  0  0  0  0  0
    5.4052   -3.3005    0.4700 H   0  0  0  0  0  0  0  0  0  0  0  0
    4.1637   -3.7265   -0.7323 H   0  0  0  0  0  0  0  0  0  0  0  0
    2.5951   -8.7425    0.1160 H   0  0  0  0  0  0  0  0  0  0  0  0
    1.4506   -8.4751    1.4528 H   0  0  0  0  0  0  0  0  0  0  0  0
    1.3194   -7.5106   -0.0375 H   0  0  0  0  0  0  0  0  0  0  0  0
    0.1980   -2.5496   -1.6682 H   0  0  0  0  0  0  0  0  0  0  0  0
  1  2  1  0  0  0  0
  1 23  1  0  0  0  0
  1 24  1  0  0  0  0
  1 25  1  0  0  0  0
  2  3  1  0  0  0  0
  2 26  1  0  0  0  0
  2 27  1  0  0  0  0
  3  4  1  0  0  0  0
  3 28  1  0  0  0  0
  3 29  1  0  0  0  0
  4  5  1  0  0  0  0
  4 30  1  0  0  0  0
  4 31  1  0  0  0  0
  5 10  1  0  0  0  0
  5  6  1  0  0  0  0
  5 50  1  1  0  0  0
  6  7  1  0  0  0  0
  6 32  1  0  0  0  0
  6 33  1  0  0  0  0
  7  8  1  0  0  0  0
  7 34  1  0  0  0  0
  7 35  1  0  0  0  0
  8  9  1  0  0  0  0
  8 36  1  0  0  0  0
  8 37  1  0  0  0  0
  9 10  1  0  0  0  0
  9 38  1  0  0  0  0
  9 39  1  0  0  0  0
 10 11  1  6  0  0  0
 10 12  1  0  0  0  0
 12 13  2  0  0  0  0
 12 14  1  0  0  0  0
 14 15  1  0  0  0  0
 14 40  1  0  0  0  0
 15 20  2  0  0  0  0
 15 16  1  0  0  0  0
 16 17  2  0  0  0  0
 16 22  1  0  0  0  0
 17 18  1  0  0  0  0
 17 41  1  0  0  0  0
 18 19  2  0  0  0  0
 18 42  1  0  0  0  0
 19 20  1  0  0  0  0
 19 43  1  0  0  0  0
 20 21  1  0  0  0  0
 21 44  1  0  0  0  0
 21 45  1  0  0  0  0
 21 46  1  0  0  0  0
 22 47  1  0  0  0  0
 22 48  1  0  0  0  0
 22 49  1  0  0  0  0
M  CHG  1   5   1
M  END
$$$$
