ZINC01530947
 OpenBabel08292219463D

 29 31  0  0  1  0  0  0  0  0999 V2000
   -0.0167    1.3819    0.0096 C   0  0  0  0  0  0  0  0  0  0  0  0
    1.1651    2.0988    0.0022 C   0  0  0  0  0  0  0  0  0  0  0  0
    2.3854    1.4416   -0.0134 C   0  0  0  0  0  0  0  0  0  0  0  0
    2.4197    0.0564   -0.0211 C   0  0  0  0  0  0  0  0  0  0  0  0
    1.2146   -0.6746   -0.0131 C   0  0  0  0  0  0  0  0  0  0  0  0
    0.0021   -0.0041    0.0020 C   0  0  0  0  0  0  0  0  0  0  0  0
    1.6061   -2.0999   -0.0250 C   0  0  0  0  0  0  0  0  0  0  0  0
    0.8430   -3.0446   -0.0230 O   0  0  0  0  0  0  0  0  0  0  0  0
    2.9491   -2.1754   -0.0390 N   0  0  0  0  0  0  0  0  0  0  0  0
    3.5027   -0.9494   -0.0377 C   0  0  0  0  0  0  0  0  0  0  0  0
    4.6932   -0.7091   -0.0487 O   0  0  0  0  0  0  0  0  0  0  0  0
    3.7088   -3.4280   -0.0532 C   0  0  1  0  0  0  0  0  0  0  0  0
    3.0194   -4.2722   -0.0507 H   0  0  0  0  0  0  0  0  0  0  0  0
    4.5816   -3.4833   -1.3116 C   0  0  0  0  0  0  0  0  0  0  0  0
    5.4483   -4.7455   -1.2492 C   0  0  0  0  0  0  0  0  0  0  0  0
    6.2373   -4.7404    0.0334 C   0  0  0  0  0  0  0  0  0  0  0  0
    7.3153   -5.2938    0.0704 O   0  0  0  0  0  0  0  0  0  0  0  0
    5.7707   -4.1351    1.1358 N   0  0  0  0  0  0  0  0  0  0  0  0
    4.5913   -3.4952    1.1652 C   0  0  0  0  0  0  0  0  0  0  0  0
    4.2298   -2.9601    2.1911 O   0  0  0  0  0  0  0  0  0  0  0  0
   -0.9613    1.9053    0.0260 H   0  0  0  0  0  0  0  0  0  0  0  0
    1.1375    3.1784    0.0082 H   0  0  0  0  0  0  0  0  0  0  0  0
    3.3057    2.0069   -0.0199 H   0  0  0  0  0  0  0  0  0  0  0  0
   -0.9244   -0.5590    0.0082 H   0  0  0  0  0  0  0  0  0  0  0  0
    3.9461   -3.5191   -2.1965 H   0  0  0  0  0  0  0  0  0  0  0  0
    5.2213   -2.6017   -1.3525 H   0  0  0  0  0  0  0  0  0  0  0  0
    4.8094   -5.6281   -1.2803 H   0  0  0  0  0  0  0  0  0  0  0  0
    6.1325   -4.7599   -2.0976 H   0  0  0  0  0  0  0  0  0  0  0  0
    6.3063   -4.1615    1.9440 H   0  0  0  0  0  0  0  0  0  0  0  0
  1  6  2  0  0  0  0
  1  2  1  0  0  0  0
  1 21  1  0  0  0  0
  2  3  2  0  0  0  0
  2 22  1  0  0  0  0
  3  4  1  0  0  0  0
  3 23  1  0  0  0  0
  4 10  1  0  0  0  0
  4  5  2  0  0  0  0
  5  6  1  0  0  0  0
  5  7  1  0  0  0  0
  6 24  1  0  0  0  0
  7  8  2  0  0  0  0
  7  9  1  0  0  0  0
  9 10  1  0  0  0  0
  9 12  1  0  0  0  0
 10 11  2  0  0  0  0
 12 13  1  1  0  0  0
 12 19  1  0  0  0  0
 12 14  1  0  0  0  0
 14 15  1  0  0  0  0
 14 25  1  0  0  0  0
 14 26  1  0  0  0  0
 15 16  1  0  0  0  0
 15 27  1  0  0  0  0
 15 28  1  0  0  0  0
 16 17  2  0  0  0  0
 16 18  1  0  0  0  0
 18 19  1  0  0  0  0
 18 29  1  0  0  0  0
 19 20  2  0  0  0  0
M  END
$$$$
