ZINC00601255
 OpenBabel08292219463D

 53 54  0  0  1  0  0  0  0  0999 V2000
   -0.0187    1.5258    0.0104 C   0  0  0  0  0  0  0  0  0  0  0  0
    0.0021   -0.0041    0.0020 C   0  0  0  0  0  0  0  0  0  0  0  0
   -1.3761   -0.5125    0.0124 N   0  3  1  0  0  0  0  0  0  0  0  0
   -2.0520   -0.1440   -1.2498 C   0  0  0  0  0  0  0  0  0  0  0  0
   -1.8920   -1.3861   -2.1615 C   0  0  0  0  0  0  0  0  0  0  0  0
   -2.0408   -2.5451   -1.1410 C   0  0  0  0  0  0  0  0  0  0  0  0
   -1.3618   -1.9826    0.1254 C   0  0  2  0  0  0  0  0  0  0  0  0
   -0.3337   -2.3399    0.1847 H   0  0  0  0  0  0  0  0  0  0  0  0
   -2.1395   -2.4166    1.3695 C   0  0  0  0  0  0  0  0  0  0  0  0
   -1.5923   -1.7401    2.5481 N   0  0  0  0  0  0  0  0  0  0  0  0
   -2.1241   -1.9706    3.7649 C   0  0  0  0  0  0  0  0  0  0  0  0
   -3.0582   -2.7404    3.8845 O   0  0  0  0  0  0  0  0  0  0  0  0
   -1.5742   -1.2908    4.9494 C   0  0  0  0  0  0  0  0  0  0  0  0
   -0.5036   -0.4006    4.8139 C   0  0  0  0  0  0  0  0  0  0  0  0
    0.0063    0.2291    5.9121 C   0  0  0  0  0  0  0  0  0  0  0  0
   -0.5341   -0.0088    7.1747 C   0  0  0  0  0  0  0  0  0  0  0  0
   -1.5975   -0.8900    7.3257 C   0  0  0  0  0  0  0  0  0  0  0  0
   -2.1262   -1.5291    6.2178 C   0  0  0  0  0  0  0  0  0  0  0  0
   -3.1681   -2.3864    6.3579 O   0  0  0  0  0  0  0  0  0  0  0  0
   -3.6770   -2.5787    7.6793 C   0  0  0  0  0  0  0  0  0  0  0  0
   -0.0067    0.6378    8.2872 N   0  0  0  0  0  0  0  0  0  0  0  0
    1.3553    1.3484    5.7330 S   0  0  0  0  0  0  0  0  0  0  0  0
    2.3129    0.9184    6.6908 O   0  0  0  0  0  0  0  0  0  0  0  0
    1.6601    1.3298    4.3452 O   0  0  0  0  0  0  0  0  0  0  0  0
    0.6840    2.9666    6.2036 C   0  0  0  0  0  0  0  0  0  0  0  0
    1.7800    4.0275    6.0847 C   0  0  0  0  0  0  0  0  0  0  0  0
    1.0039    1.9031    0.0027 H   0  0  0  0  0  0  0  0  0  0  0  0
   -0.5459    1.8868   -0.8726 H   0  0  0  0  0  0  0  0  0  0  0  0
   -0.5289    1.8773    0.9072 H   0  0  0  0  0  0  0  0  0  0  0  0
    0.5123   -0.3556   -0.8948 H   0  0  0  0  0  0  0  0  0  0  0  0
    0.5293   -0.3651    0.8851 H   0  0  0  0  0  0  0  0  0  0  0  0
   -3.1072    0.0610   -1.0693 H   0  0  0  0  0  0  0  0  0  0  0  0
   -1.5679    0.7224   -1.7005 H   0  0  0  0  0  0  0  0  0  0  0  0
   -2.6811   -1.4233   -2.9125 H   0  0  0  0  0  0  0  0  0  0  0  0
   -0.9080   -1.4024   -2.6301 H   0  0  0  0  0  0  0  0  0  0  0  0
   -3.0927   -2.7591   -0.9515 H   0  0  0  0  0  0  0  0  0  0  0  0
   -1.5222   -3.4370   -1.4925 H   0  0  0  0  0  0  0  0  0  0  0  0
   -3.1899   -2.1501    1.2526 H   0  0  0  0  0  0  0  0  0  0  0  0
   -2.0502   -3.4956    1.4957 H   0  0  0  0  0  0  0  0  0  0  0  0
   -0.8474   -1.1262    2.4528 H   0  0  0  0  0  0  0  0  0  0  0  0
   -0.0796   -0.2117    3.8387 H   0  0  0  0  0  0  0  0  0  0  0  0
   -2.0138   -1.0725    8.3054 H   0  0  0  0  0  0  0  0  0  0  0  0
   -4.0265   -1.6256    8.0763 H   0  0  0  0  0  0  0  0  0  0  0  0
   -4.5058   -3.2860    7.6502 H   0  0  0  0  0  0  0  0  0  0  0  0
   -2.8868   -2.9711    8.3194 H   0  0  0  0  0  0  0  0  0  0  0  0
    0.7359    1.2532    8.1837 H   0  0  0  0  0  0  0  0  0  0  0  0
   -0.3815    0.4735    9.1666 H   0  0  0  0  0  0  0  0  0  0  0  0
   -0.1433    3.2231    5.5420 H   0  0  0  0  0  0  0  0  0  0  0  0
    0.3272    2.9266    7.2328 H   0  0  0  0  0  0  0  0  0  0  0  0
    1.3767    4.9999    6.3675 H   0  0  0  0  0  0  0  0  0  0  0  0
    2.6074    3.7710    6.7463 H   0  0  0  0  0  0  0  0  0  0  0  0
    2.1368    4.0676    5.0555 H   0  0  0  0  0  0  0  0  0  0  0  0
   -1.8789   -0.1169    0.7927 H   0  0  0  0  0  0  0  0  0  0  0  0
  1  2  1  0  0  0  0
  1 27  1  0  0  0  0
  1 28  1  0  0  0  0
  1 29  1  0  0  0  0
  2  3  1  0  0  0  0
  2 30  1  0  0  0  0
  2 31  1  0  0  0  0
  3  7  1  0  0  0  0
  3  4  1  0  0  0  0
  3 53  1  1  0  0  0
  4  5  1  0  0  0  0
  4 32  1  0  0  0  0
  4 33  1  0  0  0  0
  5  6  1  0  0  0  0
  5 34  1  0  0  0  0
  5 35  1  0  0  0  0
  6  7  1  0  0  0  0
  6 36  1  0  0  0  0
  6 37  1  0  0  0  0
  7  8  1  1  0  0  0
  7  9  1  0  0  0  0
  9 10  1  0  0  0  0
  9 38  1  0  0  0  0
  9 39  1  0  0  0  0
 10 11  1  0  0  0  0
 10 40  1  0  0  0  0
 11 12  2  0  0  0  0
 11 13  1  0  0  0  0
 13 18  2  0  0  0  0
 13 14  1  0  0  0  0
 14 15  2  0  0  0  0
 14 41  1  0  0  0  0
 15 16  1  0  0  0  0
 15 22  1  0  0  0  0
 16 17  2  0  0  0  0
 16 21  1  0  0  0  0
 17 18  1  0  0  0  0
 17 42  1  0  0  0  0
 18 19  1  0  0  0  0
 19 20  1  0  0  0  0
 20 43  1  0  0  0  0
 20 44  1  0  0  0  0
 20 45  1  0  0  0  0
 21 46  1  0  0  0  0
 21 47  1  0  0  0  0
 22 23  2  0  0  0  0
 22 24  2  0  0  0  0
 22 25  1  0  0  0  0
 25 26  1  0  0  0  0
 25 48  1  0  0  0  0
 25 49  1  0  0  0  0
 26 50  1  0  0  0  0
 26 51  1  0  0  0  0
 26 52  1  0  0  0  0
M  CHG  1   3   1
M  END
$$$$
