ZINC03831332
 OpenBabel08292219463D

 79 80  0  0  1  0  0  0  0  0999 V2000
   -0.6206    2.4760    0.0473 C   0  0  0  0  0  0  0  0  0  0  0  0
   -0.3878    1.0359    0.4257 C   0  0  0  0  0  0  0  0  0  0  0  0
   -1.4201    0.1822    0.4428 C   0  0  0  0  0  0  0  0  0  0  0  0
   -1.2266   -1.2338    0.8086 C   0  0  0  0  0  0  0  0  0  0  0  0
   -2.1729   -1.9956    0.8190 O   0  0  0  0  0  0  0  0  0  0  0  0
    0.1236   -1.7225    1.1621 C   0  0  0  0  0  0  0  0  0  0  0  0
    0.3329   -3.0517    1.5098 C   0  0  0  0  0  0  0  0  0  0  0  0
    1.6085   -3.4850    1.8368 C   0  0  0  0  0  0  0  0  0  0  0  0
    2.6731   -2.6045    1.8192 C   0  0  0  0  0  0  0  0  0  0  0  0
    2.4802   -1.2757    1.4744 C   0  0  0  0  0  0  0  0  0  0  0  0
    1.2073   -0.8263    1.1442 C   0  0  0  0  0  0  0  0  0  0  0  0
    0.9747    0.5844    0.7664 C   0  0  0  0  0  0  0  0  0  0  0  0
    1.9013    1.3697    0.7415 O   0  0  0  0  0  0  0  0  0  0  0  0
   -2.7982    0.6753    0.0838 C   0  0  0  0  0  0  0  0  0  0  0  0
   -3.0629    0.4084   -1.3756 C   0  0  0  0  0  0  0  0  0  0  0  0
   -4.1245   -0.2694   -1.7354 C   0  0  0  0  0  0  0  0  0  0  0  0
   -5.0086   -0.8967   -0.6886 C   0  0  0  0  0  0  0  0  0  0  0  0
   -4.4618   -0.4217   -3.1963 C   0  0  0  0  0  0  0  0  0  0  0  0
   -3.8912   -1.7427   -3.7164 C   0  0  0  0  0  0  0  0  0  0  0  0
   -4.2337   -1.8974   -5.1995 C   0  0  0  0  0  0  0  0  0  0  0  0
   -3.6631   -3.2183   -5.7196 C   0  0  2  0  0  0  0  0  0  0  0  0
   -4.0265   -4.0394   -5.1017 H   0  0  0  0  0  0  0  0  0  0  0  0
   -2.1349   -3.1725   -5.6597 C   0  0  0  0  0  0  0  0  0  0  0  0
   -4.1105   -3.4324   -7.1669 C   0  0  0  0  0  0  0  0  0  0  0  0
   -3.6452   -4.8089   -7.6463 C   0  0  0  0  0  0  0  0  0  0  0  0
   -4.0927   -5.0230   -9.0936 C   0  0  0  0  0  0  0  0  0  0  0  0
   -3.6273   -6.3995   -9.5729 C   0  0  2  0  0  0  0  0  0  0  0  0
   -3.9914   -7.1650   -8.8877 H   0  0  0  0  0  0  0  0  0  0  0  0
   -2.0983   -6.4357   -9.6124 C   0  0  0  0  0  0  0  0  0  0  0  0
   -4.1801   -6.6651  -10.9746 C   0  0  0  0  0  0  0  0  0  0  0  0
   -3.8200   -8.0889  -11.4035 C   0  0  0  0  0  0  0  0  0  0  0  0
   -4.3727   -8.3546  -12.8052 C   0  0  0  0  0  0  0  0  0  0  0  0
   -4.0126   -9.7784  -13.2341 C   0  0  0  0  0  0  0  0  0  0  0  0
   -4.7229  -10.7808  -12.3222 C   0  0  0  0  0  0  0  0  0  0  0  0
   -4.4556  -10.0025  -14.6813 C   0  0  0  0  0  0  0  0  0  0  0  0
    0.3243    3.0182    0.0826 H   0  0  0  0  0  0  0  0  0  0  0  0
   -1.0300    2.5248   -0.9617 H   0  0  0  0  0  0  0  0  0  0  0  0
   -1.3243    2.9264    0.7472 H   0  0  0  0  0  0  0  0  0  0  0  0
   -0.4954   -3.7445    1.5257 H   0  0  0  0  0  0  0  0  0  0  0  0
    1.7712   -4.5178    2.1073 H   0  0  0  0  0  0  0  0  0  0  0  0
    3.6623   -2.9538    2.0762 H   0  0  0  0  0  0  0  0  0  0  0  0
    3.3162   -0.5920    1.4628 H   0  0  0  0  0  0  0  0  0  0  0  0
   -3.5398    0.1538    0.6889 H   0  0  0  0  0  0  0  0  0  0  0  0
   -2.8619    1.7466    0.2746 H   0  0  0  0  0  0  0  0  0  0  0  0
   -2.3773    0.7760   -2.1247 H   0  0  0  0  0  0  0  0  0  0  0  0
   -5.7229   -0.1576   -0.3258 H   0  0  0  0  0  0  0  0  0  0  0  0
   -5.5465   -1.7386   -1.1244 H   0  0  0  0  0  0  0  0  0  0  0  0
   -4.3957   -1.2477    0.1417 H   0  0  0  0  0  0  0  0  0  0  0  0
   -5.5446   -0.4194   -3.3213 H   0  0  0  0  0  0  0  0  0  0  0  0
   -4.0295    0.4068   -3.7573 H   0  0  0  0  0  0  0  0  0  0  0  0
   -2.8084   -1.7450   -3.5913 H   0  0  0  0  0  0  0  0  0  0  0  0
   -4.3236   -2.5712   -3.1553 H   0  0  0  0  0  0  0  0  0  0  0  0
   -5.3165   -1.8950   -5.3245 H   0  0  0  0  0  0  0  0  0  0  0  0
   -3.8014   -1.0688   -5.7605 H   0  0  0  0  0  0  0  0  0  0  0  0
   -1.8162   -3.0199   -4.6285 H   0  0  0  0  0  0  0  0  0  0  0  0
   -1.7284   -4.1135   -6.0302 H   0  0  0  0  0  0  0  0  0  0  0  0
   -1.7715   -2.3514   -6.2776 H   0  0  0  0  0  0  0  0  0  0  0  0
   -5.1976   -3.3764   -7.2232 H   0  0  0  0  0  0  0  0  0  0  0  0
   -3.6737   -2.6603   -7.8003 H   0  0  0  0  0  0  0  0  0  0  0  0
   -2.5581   -4.8648   -7.5900 H   0  0  0  0  0  0  0  0  0  0  0  0
   -4.0821   -5.5809   -7.0129 H   0  0  0  0  0  0  0  0  0  0  0  0
   -5.1798   -4.9670   -9.1499 H   0  0  0  0  0  0  0  0  0  0  0  0
   -3.6558   -4.2509   -9.7270 H   0  0  0  0  0  0  0  0  0  0  0  0
   -1.7343   -5.6702  -10.2976 H   0  0  0  0  0  0  0  0  0  0  0  0
   -1.7045   -6.2465   -8.6138 H   0  0  0  0  0  0  0  0  0  0  0  0
   -1.7668   -7.4163   -9.9539 H   0  0  0  0  0  0  0  0  0  0  0  0
   -5.2642   -6.5517  -10.9652 H   0  0  0  0  0  0  0  0  0  0  0  0
   -3.7465   -5.9534  -11.6771 H   0  0  0  0  0  0  0  0  0  0  0  0
   -2.7359   -8.2023  -11.4130 H   0  0  0  0  0  0  0  0  0  0  0  0
   -4.2536   -8.8006  -10.7010 H   0  0  0  0  0  0  0  0  0  0  0  0
   -5.4568   -8.2412  -12.7958 H   0  0  0  0  0  0  0  0  0  0  0  0
   -3.9391   -7.6428  -13.5077 H   0  0  0  0  0  0  0  0  0  0  0  0
   -2.9343   -9.9189  -13.1583 H   0  0  0  0  0  0  0  0  0  0  0  0
   -5.8011  -10.6403  -12.3980 H   0  0  0  0  0  0  0  0  0  0  0  0
   -4.4663  -11.7951  -12.6278 H   0  0  0  0  0  0  0  0  0  0  0  0
   -4.4072  -10.6211  -11.2912 H   0  0  0  0  0  0  0  0  0  0  0  0
   -3.9496   -9.2884  -15.3310 H   0  0  0  0  0  0  0  0  0  0  0  0
   -4.1990  -11.0169  -14.9869 H   0  0  0  0  0  0  0  0  0  0  0  0
   -5.5338   -9.8620  -14.7571 H   0  0  0  0  0  0  0  0  0  0  0  0
  1  2  1  0  0  0  0
  1 36  1  0  0  0  0
  1 37  1  0  0  0  0
  1 38  1  0  0  0  0
  2 12  1  0  0  0  0
  2  3  2  0  0  0  0
  3  4  1  0  0  0  0
  3 14  1  0  0  0  0
  4  5  2  0  0  0  0
  4  6  1  0  0  0  0
  6 11  2  0  0  0  0
  6  7  1  0  0  0  0
  7  8  2  0  0  0  0
  7 39  1  0  0  0  0
  8  9  1  0  0  0  0
  8 40  1  0  0  0  0
  9 10  2  0  0  0  0
  9 41  1  0  0  0  0
 10 11  1  0  0  0  0
 10 42  1  0  0  0  0
 11 12  1  0  0  0  0
 12 13  2  0  0  0  0
 14 15  1  0  0  0  0
 14 43  1  0  0  0  0
 14 44  1  0  0  0  0
 15 16  2  0  0  0  0
 15 45  1  0  0  0  0
 16 17  1  0  0  0  0
 16 18  1  0  0  0  0
 17 46  1  0  0  0  0
 17 47  1  0  0  0  0
 17 48  1  0  0  0  0
 18 19  1  0  0  0  0
 18 49  1  0  0  0  0
 18 50  1  0  0  0  0
 19 20  1  0  0  0  0
 19 51  1  0  0  0  0
 19 52  1  0  0  0  0
 20 21  1  0  0  0  0
 20 53  1  0  0  0  0
 20 54  1  0  0  0  0
 21 22  1  1  0  0  0
 21 23  1  0  0  0  0
 21 24  1  0  0  0  0
 23 55  1  0  0  0  0
 23 56  1  0  0  0  0
 23 57  1  0  0  0  0
 24 25  1  0  0  0  0
 24 58  1  0  0  0  0
 24 59  1  0  0  0  0
 25 26  1  0  0  0  0
 25 60  1  0  0  0  0
 25 61  1  0  0  0  0
 26 27  1  0  0  0  0
 26 62  1  0  0  0  0
 26 63  1  0  0  0  0
 27 28  1  1  0  0  0
 27 29  1  0  0  0  0
 27 30  1  0  0  0  0
 29 64  1  0  0  0  0
 29 65  1  0  0  0  0
 29 66  1  0  0  0  0
 30 31  1  0  0  0  0
 30 67  1  0  0  0  0
 30 68  1  0  0  0  0
 31 32  1  0  0  0  0
 31 69  1  0  0  0  0
 31 70  1  0  0  0  0
 32 33  1  0  0  0  0
 32 71  1  0  0  0  0
 32 72  1  0  0  0  0
 33 34  1  0  0  0  0
 33 35  1  0  0  0  0
 33 73  1  0  0  0  0
 34 74  1  0  0  0  0
 34 75  1  0  0  0  0
 34 76  1  0  0  0  0
 35 77  1  0  0  0  0
 35 78  1  0  0  0  0
 35 79  1  0  0  0  0
M  END
$$$$
