ZINC00896621
 OpenBabel08292219463D

 34 37  0  0  1  0  0  0  0  0999 V2000
   -4.2245    4.3332    3.9268 C   0  0  0  0  0  0  0  0  0  0  0  0
   -3.0149    4.9705    3.7143 C   0  0  0  0  0  0  0  0  0  0  0  0
   -2.3866    4.8816    2.4841 C   0  0  0  0  0  0  0  0  0  0  0  0
   -2.9674    4.1557    1.4669 C   0  0  0  0  0  0  0  0  0  0  0  0
   -4.1841    3.5116    1.6725 C   0  0  0  0  0  0  0  0  0  0  0  0
   -4.8133    3.6039    2.9138 C   0  0  0  0  0  0  0  0  0  0  0  0
   -4.5746    2.8091    0.4184 C   0  0  0  0  0  0  0  0  0  0  0  0
   -5.3324    1.6734   -1.4095 C   0  0  0  0  0  0  0  0  0  0  0  0
   -3.9891    2.3335   -1.7725 C   0  0  0  0  0  0  0  0  0  0  0  0
   -3.6078    3.0260   -0.5303 N   0  0  0  0  0  0  0  0  0  0  0  0
   -2.5530    3.8681    0.0469 C   0  0  2  0  0  0  0  0  0  0  0  0
   -1.2376    3.1329    0.0308 C   0  0  0  0  0  0  0  0  0  0  0  0
   -1.2187    1.7507    0.0173 C   0  0  0  0  0  0  0  0  0  0  0  0
   -0.0126    1.0758    0.0080 C   0  0  0  0  0  0  0  0  0  0  0  0
    1.1760    1.7840    0.0004 C   0  0  0  0  0  0  0  0  0  0  0  0
    1.1564    3.1673    0.0081 C   0  0  0  0  0  0  0  0  0  0  0  0
   -0.0503    3.8410    0.0233 C   0  0  0  0  0  0  0  0  0  0  0  0
    2.6913    0.9370   -0.0181 Cl  0  0  0  0  0  0  0  0  0  0  0  0
   -2.4416    5.0879   -0.6892 O   0  0  0  0  0  0  0  0  0  0  0  0
   -4.7095    4.4066    4.8889 H   0  0  0  0  0  0  0  0  0  0  0  0
   -2.5594    5.5398    4.5111 H   0  0  0  0  0  0  0  0  0  0  0  0
   -1.4426    5.3806    2.3217 H   0  0  0  0  0  0  0  0  0  0  0  0
   -5.7577    3.1074    3.0814 H   0  0  0  0  0  0  0  0  0  0  0  0
   -6.1302    2.0559   -2.0462 H   0  0  0  0  0  0  0  0  0  0  0  0
   -5.2613    0.5893   -1.4977 H   0  0  0  0  0  0  0  0  0  0  0  0
   -4.1184    3.0468   -2.5865 H   0  0  0  0  0  0  0  0  0  0  0  0
   -3.2480    1.5786   -2.0351 H   0  0  0  0  0  0  0  0  0  0  0  0
   -2.1466    1.1980    0.0187 H   0  0  0  0  0  0  0  0  0  0  0  0
    0.0021   -0.0041    0.0020 H   0  0  0  0  0  0  0  0  0  0  0  0
    2.0839    3.7206    0.0018 H   0  0  0  0  0  0  0  0  0  0  0  0
   -0.0657    4.9209    0.0289 H   0  0  0  0  0  0  0  0  0  0  0  0
   -1.7684    5.6928   -0.3485 H   0  0  0  0  0  0  0  0  0  0  0  0
   -5.5626    2.0624   -0.0103 N   0  0  0  0  0  4  0  0  0  0  0  0
   -6.3788    1.7888    0.5494 H   0  0  0  0  0  0  0  0  0  0  0  0
  1  6  2  0  0  0  0
  1  2  1  0  0  0  0
  1 20  1  0  0  0  0
  2  3  2  0  0  0  0
  2 21  1  0  0  0  0
  3  4  1  0  0  0  0
  3 22  1  0  0  0  0
  4 11  1  0  0  0  0
  4  5  2  0  0  0  0
  5  6  1  0  0  0  0
  5  7  1  0  0  0  0
  6 23  1  0  0  0  0
  7 10  1  0  0  0  0
  7 33  2  0  0  0  0
  8  9  1  0  0  0  0
  8 24  1  0  0  0  0
  8 25  1  0  0  0  0
  8 33  1  0  0  0  0
  9 10  1  0  0  0  0
  9 26  1  0  0  0  0
  9 27  1  0  0  0  0
 10 11  1  0  0  0  0
 11 12  1  0  0  0  0
 11 19  1  6  0  0  0
 12 17  2  0  0  0  0
 12 13  1  0  0  0  0
 13 14  2  0  0  0  0
 13 28  1  0  0  0  0
 14 15  1  0  0  0  0
 14 29  1  0  0  0  0
 15 16  2  0  0  0  0
 15 18  1  0  0  0  0
 16 17  1  0  0  0  0
 16 30  1  0  0  0  0
 17 31  1  0  0  0  0
 19 32  1  0  0  0  0
 33 34  1  0  0  0  0
M  END
$$$$
