ZINC00004724
 OpenBabel08292219463D

 31 33  0  0  0  0  0  0  0  0999 V2000
   -0.0166    1.3714    0.0096 C   0  0  0  0  0  0  0  0  0  0  0  0
    1.1753    2.0735    0.0020 C   0  0  0  0  0  0  0  0  0  0  0  0
    2.3648    1.3838   -0.0126 C   0  0  0  0  0  0  0  0  0  0  0  0
    2.3888   -0.0179   -0.0210 C   0  0  0  0  0  0  0  0  0  0  0  0
    1.2038   -0.7169   -0.0142 C   0  0  0  0  0  0  0  0  0  0  0  0
    0.0021   -0.0041    0.0020 C   0  0  0  0  0  0  0  0  0  0  0  0
    1.0427   -2.2154   -0.0257 C   0  0  0  0  0  0  0  0  0  0  0  0
    2.3102   -2.9622    0.2309 C   0  0  0  0  0  0  0  0  0  0  0  0
    2.4078   -3.6599    1.2184 O   0  0  0  0  0  0  0  0  0  0  0  0
    3.4356   -2.8597   -0.6993 C   0  0  0  0  0  0  0  0  0  0  0  0
    3.8930   -3.9695   -1.4165 C   0  0  0  0  0  0  0  0  0  0  0  0
    4.9160   -3.8085   -2.3269 C   0  0  0  0  0  0  0  0  0  0  0  0
    5.4835   -2.5608   -2.5368 C   0  0  0  0  0  0  0  0  0  0  0  0
    5.0541   -1.4623   -1.8154 C   0  0  0  0  0  0  0  0  0  0  0  0
    4.0488   -1.6174   -0.8749 C   0  0  0  0  0  0  0  0  0  0  0  0
    3.6578   -0.5895   -0.0356 N   0  0  0  0  0  0  0  0  0  0  0  0
    4.5712   -0.1064    0.8297 C   0  0  0  0  0  0  0  0  0  0  0  0
    4.2734    0.7973    1.5864 O   0  0  0  0  0  0  0  0  0  0  0  0
    5.8149   -0.6251    0.8561 N   0  0  0  0  0  0  0  0  0  0  0  0
   -0.9577    1.9008    0.0259 H   0  0  0  0  0  0  0  0  0  0  0  0
    1.1715    3.1535    0.0071 H   0  0  0  0  0  0  0  0  0  0  0  0
    3.2960    1.9310   -0.0181 H   0  0  0  0  0  0  0  0  0  0  0  0
   -0.9327   -0.5449    0.0086 H   0  0  0  0  0  0  0  0  0  0  0  0
    0.3153   -2.4927    0.7373 H   0  0  0  0  0  0  0  0  0  0  0  0
    0.6532   -2.5157   -0.9984 H   0  0  0  0  0  0  0  0  0  0  0  0
    3.4502   -4.9419   -1.2589 H   0  0  0  0  0  0  0  0  0  0  0  0
    5.2786   -4.6616   -2.8811 H   0  0  0  0  0  0  0  0  0  0  0  0
    6.2680   -2.4462   -3.2701 H   0  0  0  0  0  0  0  0  0  0  0  0
    5.4983   -0.4923   -1.9834 H   0  0  0  0  0  0  0  0  0  0  0  0
    6.0525   -1.3462    0.2523 H   0  0  0  0  0  0  0  0  0  0  0  0
    6.4723   -0.2774    1.4788 H   0  0  0  0  0  0  0  0  0  0  0  0
  1  6  2  0  0  0  0
  1  2  1  0  0  0  0
  1 20  1  0  0  0  0
  2  3  2  0  0  0  0
  2 21  1  0  0  0  0
  3  4  1  0  0  0  0
  3 22  1  0  0  0  0
  4 16  1  0  0  0  0
  4  5  2  0  0  0  0
  5  6  1  0  0  0  0
  5  7  1  0  0  0  0
  6 23  1  0  0  0  0
  7  8  1  0  0  0  0
  7 24  1  0  0  0  0
  7 25  1  0  0  0  0
  8  9  2  0  0  0  0
  8 10  1  0  0  0  0
 10 15  2  0  0  0  0
 10 11  1  0  0  0  0
 11 12  2  0  0  0  0
 11 26  1  0  0  0  0
 12 13  1  0  0  0  0
 12 27  1  0  0  0  0
 13 14  2  0  0  0  0
 13 28  1  0  0  0  0
 14 15  1  0  0  0  0
 14 29  1  0  0  0  0
 15 16  1  0  0  0  0
 16 17  1  0  0  0  0
 17 18  2  0  0  0  0
 17 19  1  0  0  0  0
 19 30  1  0  0  0  0
 19 31  1  0  0  0  0
M  END
$$$$
