ZINC00004319
 OpenBabel08292219463D

 49 50  0  0  1  0  0  0  0  0999 V2000
   -0.0187    1.5258    0.0104 C   0  0  0  0  0  0  0  0  0  0  0  0
    0.0021   -0.0041    0.0020 C   0  0  2  0  0  0  0  0  0  0  0  0
   -1.0205   -0.3814    0.0098 H   0  0  0  0  0  0  0  0  0  0  0  0
    0.7421   -0.5109    1.2415 C   0  0  0  0  0  0  0  0  0  0  0  0
    0.6554   -2.0374    1.2986 C   0  0  0  0  0  0  0  0  0  0  0  0
    1.3843   -2.5366    2.5195 C   0  0  0  0  0  0  0  0  0  0  0  0
    2.7305   -2.8414    2.4443 C   0  0  0  0  0  0  0  0  0  0  0  0
    3.3991   -3.2993    3.5642 C   0  0  0  0  0  0  0  0  0  0  0  0
    2.7216   -3.4520    4.7594 C   0  0  0  0  0  0  0  0  0  0  0  0
    1.3755   -3.1464    4.8348 C   0  0  0  0  0  0  0  0  0  0  0  0
    0.7079   -2.6844    3.7160 C   0  0  0  0  0  0  0  0  0  0  0  0
    0.6897   -0.4778   -1.2066 N   0  3  0  0  0  0  0  0  0  0  0  0
   -0.0856   -0.0931   -2.3936 C   0  0  0  0  0  0  0  0  0  0  0  0
    0.6305   -0.5866   -3.6524 C   0  0  1  0  0  0  0  0  0  0  0  0
    0.7239   -1.6719   -3.6155 H   0  0  0  0  0  0  0  0  0  0  0  0
   -0.1648   -0.1919   -4.8701 C   0  0  0  0  0  0  0  0  0  0  0  0
    0.0084    1.0636   -5.4297 C   0  0  0  0  0  0  0  0  0  0  0  0
   -0.7144    1.4368   -6.5452 C   0  0  0  0  0  0  0  0  0  0  0  0
   -1.6204    0.5539   -7.1140 C   0  0  0  0  0  0  0  0  0  0  0  0
   -1.7981   -0.7172   -6.5513 C   0  0  0  0  0  0  0  0  0  0  0  0
   -1.0567   -1.0835   -5.4252 C   0  0  0  0  0  0  0  0  0  0  0  0
   -2.7589   -1.6648   -7.1475 C   0  0  0  0  0  0  0  0  0  0  0  0
   -3.3993   -1.3439   -8.1300 O   0  0  0  0  0  0  0  0  0  0  0  0
   -2.9267   -2.8863   -6.6031 N   0  0  0  0  0  0  0  0  0  0  0  0
   -2.3316    0.9193   -8.2099 O   0  0  0  0  0  0  0  0  0  0  0  0
    1.9312    0.0013   -3.7219 O   0  0  0  0  0  0  0  0  0  0  0  0
    1.0039    1.9031    0.0027 H   0  0  0  0  0  0  0  0  0  0  0  0
   -0.5459    1.8868   -0.8726 H   0  0  0  0  0  0  0  0  0  0  0  0
   -0.5289    1.8773    0.9072 H   0  0  0  0  0  0  0  0  0  0  0  0
    1.7879   -0.2080    1.1895 H   0  0  0  0  0  0  0  0  0  0  0  0
    0.2852   -0.0874    2.1360 H   0  0  0  0  0  0  0  0  0  0  0  0
   -0.3904   -2.3402    1.3506 H   0  0  0  0  0  0  0  0  0  0  0  0
    1.1123   -2.4609    0.4042 H   0  0  0  0  0  0  0  0  0  0  0  0
    3.2599   -2.7220    1.5106 H   0  0  0  0  0  0  0  0  0  0  0  0
    4.4507   -3.5381    3.5053 H   0  0  0  0  0  0  0  0  0  0  0  0
    3.2437   -3.8105    5.6342 H   0  0  0  0  0  0  0  0  0  0  0  0
    0.8461   -3.2660    5.7685 H   0  0  0  0  0  0  0  0  0  0  0  0
   -0.3428   -2.4421    3.7759 H   0  0  0  0  0  0  0  0  0  0  0  0
    1.6080   -0.0627   -1.2556 H   0  0  0  0  0  0  0  0  0  0  0  0
   -1.0777   -0.5415   -2.3406 H   0  0  0  0  0  0  0  0  0  0  0  0
   -0.1790    0.9922   -2.4305 H   0  0  0  0  0  0  0  0  0  0  0  0
    0.7126    1.7546   -4.9905 H   0  0  0  0  0  0  0  0  0  0  0  0
   -0.5744    2.4175   -6.9753 H   0  0  0  0  0  0  0  0  0  0  0  0
   -1.1854   -2.0626   -4.9881 H   0  0  0  0  0  0  0  0  0  0  0  0
   -2.4158   -3.1423   -5.8193 H   0  0  0  0  0  0  0  0  0  0  0  0
   -3.5584   -3.5093   -6.9951 H   0  0  0  0  0  0  0  0  0  0  0  0
   -1.8996    0.7059   -9.0483 H   0  0  0  0  0  0  0  0  0  0  0  0
    1.9246    0.9676   -3.7575 H   0  0  0  0  0  0  0  0  0  0  0  0
    0.7761   -1.4825   -1.1724 H   0  0  0  0  0  0  0  0  0  0  0  0
  1  2  1  0  0  0  0
  1 27  1  0  0  0  0
  1 28  1  0  0  0  0
  1 29  1  0  0  0  0
  2  3  1  1  0  0  0
  2  4  1  0  0  0  0
  2 12  1  0  0  0  0
  4  5  1  0  0  0  0
  4 30  1  0  0  0  0
  4 31  1  0  0  0  0
  5  6  1  0  0  0  0
  5 32  1  0  0  0  0
  5 33  1  0  0  0  0
  6 11  2  0  0  0  0
  6  7  1  0  0  0  0
  7  8  2  0  0  0  0
  7 34  1  0  0  0  0
  8  9  1  0  0  0  0
  8 35  1  0  0  0  0
  9 10  2  0  0  0  0
  9 36  1  0  0  0  0
 10 11  1  0  0  0  0
 10 37  1  0  0  0  0
 11 38  1  0  0  0  0
 12 13  1  0  0  0  0
 12 39  1  0  0  0  0
 12 49  1  0  0  0  0
 13 14  1  0  0  0  0
 13 40  1  0  0  0  0
 13 41  1  0  0  0  0
 14 15  1  1  0  0  0
 14 16  1  0  0  0  0
 14 26  1  0  0  0  0
 16 21  2  0  0  0  0
 16 17  1  0  0  0  0
 17 18  2  0  0  0  0
 17 42  1  0  0  0  0
 18 19  1  0  0  0  0
 18 43  1  0  0  0  0
 19 20  2  0  0  0  0
 19 25  1  0  0  0  0
 20 21  1  0  0  0  0
 20 22  1  0  0  0  0
 21 44  1  0  0  0  0
 22 23  2  0  0  0  0
 22 24  1  0  0  0  0
 24 45  1  0  0  0  0
 24 46  1  0  0  0  0
 25 47  1  0  0  0  0
 26 48  1  0  0  0  0
M  CHG  1  12   1
M  END
$$$$
