ZINC01530753
 OpenBabel08292219463D

 32 32  0  0  0  0  0  0  0  0999 V2000
   -0.0187    1.5295    0.0105 C   0  0  0  0  0  0  0  0  0  0  0  0
    0.0021   -0.0041    0.0020 C   0  0  0  0  0  0  0  0  0  0  0  0
    0.9242   -0.4670    1.0485 N   0  0  0  0  0  0  0  0  0  0  0  0
    2.3103    0.0215    1.0379 C   0  0  0  0  0  0  0  0  0  0  0  0
    2.2895    1.5551    1.0464 C   0  0  0  0  0  0  0  0  0  0  0  0
    1.3673    2.0180   -0.0002 N   0  0  0  0  0  0  0  0  0  0  0  0
    1.7854    2.8748   -0.9528 C   0  0  0  0  0  0  0  0  0  0  0  0
    1.0153    3.2495   -1.8116 O   0  0  0  0  0  0  0  0  0  0  0  0
    3.2096    3.3672   -0.9509 C   0  0  0  0  0  0  0  0  0  0  0  0
    3.4212    4.3207   -2.1287 C   0  0  0  0  0  0  0  0  0  0  0  0
    5.2792    4.9631   -2.1262 Br  0  0  0  0  0  0  0  0  0  0  0  0
    0.5062   -1.3238    2.0012 C   0  0  0  0  0  0  0  0  0  0  0  0
   -0.6401   -1.7198    1.9999 O   0  0  0  0  0  0  0  0  0  0  0  0
    1.4632   -1.7898    3.0680 C   0  0  0  0  0  0  0  0  0  0  0  0
    0.7415   -2.7489    4.0168 C   0  0  0  0  0  0  0  0  0  0  0  0
    1.9900   -3.3569    5.4086 Br  0  0  0  0  0  0  0  0  0  0  0  0
   -0.5415    1.8931   -0.8742 H   0  0  0  0  0  0  0  0  0  0  0  0
   -0.5245    1.8835    0.9087 H   0  0  0  0  0  0  0  0  0  0  0  0
   -0.9995   -0.3846    0.2025 H   0  0  0  0  0  0  0  0  0  0  0  0
    0.3406   -0.3600   -0.9710 H   0  0  0  0  0  0  0  0  0  0  0  0
    2.8331   -0.3421    1.9225 H   0  0  0  0  0  0  0  0  0  0  0  0
    2.8161   -0.3325    0.1396 H   0  0  0  0  0  0  0  0  0  0  0  0
    1.9480    1.9110    2.0184 H   0  0  0  0  0  0  0  0  0  0  0  0
    3.2916    1.9356    0.8489 H   0  0  0  0  0  0  0  0  0  0  0  0
    3.4112    3.8926   -0.0174 H   0  0  0  0  0  0  0  0  0  0  0  0
    3.8875    2.5188   -1.0440 H   0  0  0  0  0  0  0  0  0  0  0  0
    3.2196    3.7953   -3.0622 H   0  0  0  0  0  0  0  0  0  0  0  0
    2.7433    5.1691   -2.0356 H   0  0  0  0  0  0  0  0  0  0  0  0
    2.3042   -2.3036    2.6024 H   0  0  0  0  0  0  0  0  0  0  0  0
    1.8285   -0.9298    3.6293 H   0  0  0  0  0  0  0  0  0  0  0  0
   -0.0995   -2.2351    4.4824 H   0  0  0  0  0  0  0  0  0  0  0  0
    0.3763   -3.6089    3.4556 H   0  0  0  0  0  0  0  0  0  0  0  0
  1  6  1  0  0  0  0
  1  2  1  0  0  0  0
  1 17  1  0  0  0  0
  1 18  1  0  0  0  0
  2  3  1  0  0  0  0
  2 19  1  0  0  0  0
  2 20  1  0  0  0  0
  3  4  1  0  0  0  0
  3 12  1  0  0  0  0
  4  5  1  0  0  0  0
  4 21  1  0  0  0  0
  4 22  1  0  0  0  0
  5  6  1  0  0  0  0
  5 23  1  0  0  0  0
  5 24  1  0  0  0  0
  6  7  1  0  0  0  0
  7  8  2  0  0  0  0
  7  9  1  0  0  0  0
  9 10  1  0  0  0  0
  9 25  1  0  0  0  0
  9 26  1  0  0  0  0
 10 11  1  0  0  0  0
 10 27  1  0  0  0  0
 10 28  1  0  0  0  0
 12 13  2  0  0  0  0
 12 14  1  0  0  0  0
 14 15  1  0  0  0  0
 14 29  1  0  0  0  0
 14 30  1  0  0  0  0
 15 16  1  0  0  0  0
 15 31  1  0  0  0  0
 15 32  1  0  0  0  0
M  END
$$$$
