ZINC00057062
 OpenBabel08292219463D

 31 31  0  0  1  0  0  0  0  0999 V2000
   -0.0184    1.5028    0.0103 C   0  0  0  0  0  0  0  0  0  0  0  0
    0.0021   -0.0041    0.0020 C   0  0  0  0  0  0  0  0  0  0  0  0
    0.0057   -0.6888   -1.1978 C   0  0  0  0  0  0  0  0  0  0  0  0
    0.0244   -2.0713   -1.2061 C   0  0  0  0  0  0  0  0  0  0  0  0
    0.0395   -2.7720   -0.0142 C   0  0  0  0  0  0  0  0  0  0  0  0
    0.0359   -2.0919    1.1883 C   0  0  0  0  0  0  0  0  0  0  0  0
    0.0230   -0.7047    1.1992 C   0  0  0  0  0  0  0  0  0  0  0  0
    0.0255   -0.0333    2.3808 O   0  0  0  0  0  0  0  0  0  0  0  0
   -1.2463    0.2703    2.9572 C   0  0  0  0  0  0  0  0  0  0  0  0
   -1.0431    1.0223    4.2740 C   0  0  2  0  0  0  0  0  0  0  0  0
   -2.0108    1.3316    4.6690 H   0  0  0  0  0  0  0  0  0  0  0  0
   -0.1746    2.2576    4.0271 C   0  0  0  0  0  0  0  0  0  0  0  0
   -0.3775    0.1416    5.2432 N   0  3  0  0  0  0  0  0  0  0  0  0
    0.0523   -2.8562    2.4870 C   0  0  0  0  0  0  0  0  0  0  0  0
    1.0042    1.8801    0.0026 H   0  0  0  0  0  0  0  0  0  0  0  0
   -0.5455    1.8639   -0.8728 H   0  0  0  0  0  0  0  0  0  0  0  0
   -0.5286    1.8543    0.9071 H   0  0  0  0  0  0  0  0  0  0  0  0
   -0.0064   -0.1438   -2.1301 H   0  0  0  0  0  0  0  0  0  0  0  0
    0.0269   -2.6048   -2.1451 H   0  0  0  0  0  0  0  0  0  0  0  0
    0.0538   -3.8518   -0.0233 H   0  0  0  0  0  0  0  0  0  0  0  0
   -1.8183    0.8920    2.2684 H   0  0  0  0  0  0  0  0  0  0  0  0
   -1.7893   -0.6554    3.1476 H   0  0  0  0  0  0  0  0  0  0  0  0
    0.7931    1.9483    3.6322 H   0  0  0  0  0  0  0  0  0  0  0  0
   -0.6685    2.9111    3.3080 H   0  0  0  0  0  0  0  0  0  0  0  0
   -0.0298    2.7933    4.9653 H   0  0  0  0  0  0  0  0  0  0  0  0
    0.5183   -0.1447    4.8776 H   0  0  0  0  0  0  0  0  0  0  0  0
   -0.2434    0.6375    6.1116 H   0  0  0  0  0  0  0  0  0  0  0  0
    1.0838   -3.0266    2.7953 H   0  0  0  0  0  0  0  0  0  0  0  0
   -0.4658   -2.2805    3.2539 H   0  0  0  0  0  0  0  0  0  0  0  0
   -0.4492   -3.8144    2.3510 H   0  0  0  0  0  0  0  0  0  0  0  0
   -0.9502   -0.6730    5.4060 H   0  0  0  0  0  0  0  0  0  0  0  0
  1  2  1  0  0  0  0
  1 15  1  0  0  0  0
  1 16  1  0  0  0  0
  1 17  1  0  0  0  0
  2  7  2  0  0  0  0
  2  3  1  0  0  0  0
  3  4  2  0  0  0  0
  3 18  1  0  0  0  0
  4  5  1  0  0  0  0
  4 19  1  0  0  0  0
  5  6  2  0  0  0  0
  5 20  1  0  0  0  0
  6  7  1  0  0  0  0
  6 14  1  0  0  0  0
  7  8  1  0  0  0  0
  8  9  1  0  0  0  0
  9 10  1  0  0  0  0
  9 21  1  0  0  0  0
  9 22  1  0  0  0  0
 10 11  1  1  0  0  0
 10 12  1  0  0  0  0
 10 13  1  0  0  0  0
 12 23  1  0  0  0  0
 12 24  1  0  0  0  0
 12 25  1  0  0  0  0
 13 26  1  0  0  0  0
 13 27  1  0  0  0  0
 13 31  1  0  0  0  0
 14 28  1  0  0  0  0
 14 29  1  0  0  0  0
 14 30  1  0  0  0  0
M  CHG  1  13   1
M  END
$$$$
