ZINC01529323
 OpenBabel08292219463D

 53 55  0  0  1  0  0  0  0  0999 V2000
   -0.0178    1.4608    0.0101 C   0  0  0  0  0  0  0  0  0  0  0  0
    0.0021   -0.0041    0.0020 N   0  0  0  0  0  0  0  0  0  0  0  0
    0.0241   -0.7433    1.2666 C   0  0  0  0  0  0  0  0  0  0  0  0
   -1.3889   -1.0161    1.7137 C   0  0  0  0  0  0  0  0  0  0  0  0
   -1.9892   -2.2351    1.3999 C   0  0  0  0  0  0  0  0  0  0  0  0
   -3.2219   -2.4965    1.7797 N   0  0  0  0  0  0  0  0  0  0  0  0
   -3.9051   -1.5830    2.4739 C   0  0  0  0  0  0  0  0  0  0  0  0
   -3.2902   -0.3458    2.7901 C   0  0  0  0  0  0  0  0  0  0  0  0
   -2.0425   -0.1038    2.4012 N   0  0  0  0  0  0  0  0  0  0  0  0
   -4.0706    0.6301    3.5527 C   0  0  0  0  0  0  0  0  0  0  0  0
   -5.3055    0.2953    3.9004 N   0  0  0  0  0  0  0  0  0  0  0  0
   -5.8196   -0.8850    3.5693 C   0  0  0  0  0  0  0  0  0  0  0  0
   -5.1609   -1.7987    2.8845 N   0  0  0  0  0  0  0  0  0  0  0  0
   -7.1130   -1.1692    3.9639 N   0  0  0  0  0  0  0  0  0  0  0  0
   -3.5402    1.8539    3.8976 N   0  0  0  0  0  0  0  0  0  0  0  0
    0.0000   -0.6928   -1.2059 C   0  0  0  0  0  0  0  0  0  0  0  0
    0.0132   -2.0849   -1.2118 C   0  0  0  0  0  0  0  0  0  0  0  0
    0.0112   -2.7693   -2.4056 C   0  0  0  0  0  0  0  0  0  0  0  0
   -0.0041   -2.0653   -3.6133 C   0  0  0  0  0  0  0  0  0  0  0  0
   -0.0173   -0.6674   -3.6040 C   0  0  0  0  0  0  0  0  0  0  0  0
   -0.0210    0.0112   -2.4068 C   0  0  0  0  0  0  0  0  0  0  0  0
   -0.0058   -2.7960   -4.8948 C   0  0  0  0  0  0  0  0  0  0  0  0
    0.0061   -4.0119   -4.9015 O   0  0  0  0  0  0  0  0  0  0  0  0
   -0.0205   -2.1158   -6.0583 N   0  0  0  0  0  0  0  0  0  0  0  0
   -0.0222   -2.8414   -7.3310 C   0  0  1  0  0  0  0  0  0  0  0  0
   -0.6020   -3.7584   -7.2256 H   0  0  0  0  0  0  0  0  0  0  0  0
   -0.6480   -1.9644   -8.4172 C   0  0  0  0  0  0  0  0  0  0  0  0
   -2.1222   -1.7198   -8.0888 C   0  0  0  0  0  0  0  0  0  0  0  0
   -2.7386   -0.8559   -9.1588 C   0  0  0  0  0  0  0  0  0  0  0  0
   -2.0616   -0.4715  -10.0971 O   0  0  0  0  0  0  0  0  0  0  0  0
   -3.9143   -0.5414   -9.0862 O   0  0  0  0  0  1  0  0  0  0  0  0
    1.3940   -3.1839   -7.7158 C   0  0  0  0  0  0  0  0  0  0  0  0
    2.3190   -2.8526   -6.9939 O   0  0  0  0  0  0  0  0  0  0  0  0
    1.6147   -3.7923   -8.7491 O   0  0  0  0  0  1  0  0  0  0  0  0
    1.0048    1.8381    0.0023 H   0  0  0  0  0  0  0  0  0  0  0  0
   -0.5450    1.8219   -0.8730 H   0  0  0  0  0  0  0  0  0  0  0  0
   -0.5280    1.8123    0.9069 H   0  0  0  0  0  0  0  0  0  0  0  0
    0.5496   -1.6879    1.1262 H   0  0  0  0  0  0  0  0  0  0  0  0
    0.5371   -0.1514    2.0246 H   0  0  0  0  0  0  0  0  0  0  0  0
   -1.4361   -2.9733    0.8382 H   0  0  0  0  0  0  0  0  0  0  0  0
   -7.6209   -0.5150    4.4689 H   0  0  0  0  0  0  0  0  0  0  0  0
   -7.5132   -2.0229    3.7358 H   0  0  0  0  0  0  0  0  0  0  0  0
   -2.6346    2.0814    3.6347 H   0  0  0  0  0  0  0  0  0  0  0  0
   -4.0722    2.4880    4.4032 H   0  0  0  0  0  0  0  0  0  0  0  0
    0.0253   -2.6282   -0.2785 H   0  0  0  0  0  0  0  0  0  0  0  0
    0.0217   -3.8493   -2.4096 H   0  0  0  0  0  0  0  0  0  0  0  0
   -0.0287   -0.1208   -4.5353 H   0  0  0  0  0  0  0  0  0  0  0  0
   -0.0359    1.0910   -2.3989 H   0  0  0  0  0  0  0  0  0  0  0  0
   -0.0300   -1.1459   -6.0530 H   0  0  0  0  0  0  0  0  0  0  0  0
   -0.1225   -1.0104   -8.4615 H   0  0  0  0  0  0  0  0  0  0  0  0
   -0.5691   -2.4677   -9.3808 H   0  0  0  0  0  0  0  0  0  0  0  0
   -2.6477   -2.6737   -8.0445 H   0  0  0  0  0  0  0  0  0  0  0  0
   -2.2011   -1.2164   -7.1252 H   0  0  0  0  0  0  0  0  0  0  0  0
  1  2  1  0  0  0  0
  1 35  1  0  0  0  0
  1 36  1  0  0  0  0
  1 37  1  0  0  0  0
  2  3  1  0  0  0  0
  2 16  1  0  0  0  0
  3  4  1  0  0  0  0
  3 38  1  0  0  0  0
  3 39  1  0  0  0  0
  4  9  2  0  0  0  0
  4  5  1  0  0  0  0
  5  6  2  0  0  0  0
  5 40  1  0  0  0  0
  6  7  1  0  0  0  0
  7 13  2  0  0  0  0
  7  8  1  0  0  0  0
  8  9  1  0  0  0  0
  8 10  2  0  0  0  0
 10 11  1  0  0  0  0
 10 15  1  0  0  0  0
 11 12  2  0  0  0  0
 12 13  1  0  0  0  0
 12 14  1  0  0  0  0
 14 41  1  0  0  0  0
 14 42  1  0  0  0  0
 15 43  1  0  0  0  0
 15 44  1  0  0  0  0
 16 21  2  0  0  0  0
 16 17  1  0  0  0  0
 17 18  2  0  0  0  0
 17 45  1  0  0  0  0
 18 19  1  0  0  0  0
 18 46  1  0  0  0  0
 19 20  2  0  0  0  0
 19 22  1  0  0  0  0
 20 21  1  0  0  0  0
 20 47  1  0  0  0  0
 21 48  1  0  0  0  0
 22 23  2  0  0  0  0
 22 24  1  0  0  0  0
 24 25  1  0  0  0  0
 24 49  1  0  0  0  0
 25 26  1  1  0  0  0
 25 27  1  0  0  0  0
 25 32  1  0  0  0  0
 27 28  1  0  0  0  0
 27 50  1  0  0  0  0
 27 51  1  0  0  0  0
 28 29  1  0  0  0  0
 28 52  1  0  0  0  0
 28 53  1  0  0  0  0
 29 30  2  0  0  0  0
 29 31  1  0  0  0  0
 32 33  2  0  0  0  0
 32 34  1  0  0  0  0
M  END
$$$$
