ZINC03872449
 OpenBabel08292219463D

 12 11  0  0  1  0  0  0  0  0999 V2000
   -0.0127    1.0858    0.0080 C   0  0  2  0  0  0  0  0  0  0  0  0
    0.0021   -0.0041    0.0020 H   0  0  0  0  0  0  0  0  0  0  0  0
    1.4227    1.6154   -0.0028 C   0  0  0  0  0  0  0  0  0  0  0  0
    2.0915    1.1546   -1.1786 O   0  0  0  0  0  0  0  0  0  0  0  0
    3.4466    1.5952   -1.2868 C   0  0  0  0  0  0  0  0  0  0  0  0
    3.4815    2.9935   -1.3133 F   0  0  0  0  0  0  0  0  0  0  0  0
    4.1771    1.1312   -0.1876 F   0  0  0  0  0  0  0  0  0  0  0  0
    1.4037    3.0142    0.0048 F   0  0  0  0  0  0  0  0  0  0  0  0
    2.0993    1.1520    1.1305 F   0  0  0  0  0  0  0  0  0  0  0  0
   -0.6893    1.5493   -1.1254 F   0  0  0  0  0  0  0  0  0  0  0  0
   -0.8566    1.6673    1.4914 Cl  0  0  0  0  0  0  0  0  0  0  0  0
    3.8838    1.2034   -2.2052 H   0  0  0  0  0  0  0  0  0  0  0  0
  1  2  1  6  0  0  0
  1  3  1  0  0  0  0
  1 10  1  0  0  0  0
  1 11  1  0  0  0  0
  3  4  1  0  0  0  0
  3  8  1  0  0  0  0
  3  9  1  0  0  0  0
  4  5  1  0  0  0  0
  5  6  1  0  0  0  0
  5  7  1  0  0  0  0
  5 12  1  0  0  0  0
M  END
$$$$
