ZINC03830347
 OpenBabel08292219463D

 32 32  0  0  0  0  0  0  0  0999 V2000
    1.3984    1.5962   -0.1722 C   0  0  0  0  0  0  0  0  0  0  0  0
   -0.0144    1.0441    0.0283 C   0  0  0  0  0  0  0  0  0  0  0  0
   -0.7560    1.0425   -1.3100 C   0  0  0  0  0  0  0  0  0  0  0  0
   -0.7684    1.9232    1.0281 C   0  0  0  0  0  0  0  0  0  0  0  0
   -0.1375    1.7757    2.4141 C   0  0  0  0  0  0  0  0  0  0  0  0
    1.1927    2.5048    2.4073 C   0  0  0  0  0  0  0  0  0  0  0  0
    1.2605    3.6866    2.1455 O   0  0  0  0  0  0  0  0  0  0  0  0
    2.2982    1.7889    2.7032 N   0  0  0  0  0  0  0  0  0  0  0  0
    2.2404    0.4843    2.9941 C   0  0  0  0  0  0  0  0  0  0  0  0
    3.2843   -0.0826    3.2490 O   0  0  0  0  0  0  0  0  0  0  0  0
    1.1170   -0.2418    3.0246 N   0  0  0  0  0  0  0  0  0  0  0  0
   -0.0906    0.2985    2.7566 C   0  0  0  0  0  0  0  0  0  0  0  0
   -1.1004   -0.3717    2.7888 O   0  0  0  0  0  0  0  0  0  0  0  0
   -1.0513    2.4702    3.4258 C   0  0  0  0  0  0  0  0  0  0  0  0
   -0.4595    2.3446    4.8061 C   0  0  0  0  0  0  0  0  0  0  0  0
   -0.2407    3.4176    5.5251 C   0  0  0  0  0  0  0  0  0  0  0  0
    1.9842    1.4325    0.7323 H   0  0  0  0  0  0  0  0  0  0  0  0
    1.8728    1.0850   -1.0098 H   0  0  0  0  0  0  0  0  0  0  0  0
    1.3446    2.6645   -0.3819 H   0  0  0  0  0  0  0  0  0  0  0  0
    0.0446    0.0257    0.4122 H   0  0  0  0  0  0  0  0  0  0  0  0
   -0.2188    0.4162   -2.0223 H   0  0  0  0  0  0  0  0  0  0  0  0
   -1.7624    0.6491   -1.1672 H   0  0  0  0  0  0  0  0  0  0  0  0
   -0.8149    2.0609   -1.6940 H   0  0  0  0  0  0  0  0  0  0  0  0
   -0.7109    2.9647    0.7117 H   0  0  0  0  0  0  0  0  0  0  0  0
   -1.8126    1.6131    1.0693 H   0  0  0  0  0  0  0  0  0  0  0  0
    3.1602    2.2337    2.7054 H   0  0  0  0  0  0  0  0  0  0  0  0
    1.1720   -1.1845    3.2462 H   0  0  0  0  0  0  0  0  0  0  0  0
   -1.1462    3.5244    3.1658 H   0  0  0  0  0  0  0  0  0  0  0  0
   -2.0352    2.0016    3.4083 H   0  0  0  0  0  0  0  0  0  0  0  0
   -0.2159    1.3700    5.2025 H   0  0  0  0  0  0  0  0  0  0  0  0
   -0.4844    4.3922    5.1287 H   0  0  0  0  0  0  0  0  0  0  0  0
    0.1833    3.3275    6.5143 H   0  0  0  0  0  0  0  0  0  0  0  0
  1  2  1  0  0  0  0
  1 17  1  0  0  0  0
  1 18  1  0  0  0  0
  1 19  1  0  0  0  0
  2  3  1  0  0  0  0
  2  4  1  0  0  0  0
  2 20  1  0  0  0  0
  3 21  1  0  0  0  0
  3 22  1  0  0  0  0
  3 23  1  0  0  0  0
  4  5  1  0  0  0  0
  4 24  1  0  0  0  0
  4 25  1  0  0  0  0
  5 12  1  0  0  0  0
  5  6  1  0  0  0  0
  5 14  1  0  0  0  0
  6  7  2  0  0  0  0
  6  8  1  0  0  0  0
  8  9  1  0  0  0  0
  8 26  1  0  0  0  0
  9 10  2  0  0  0  0
  9 11  1  0  0  0  0
 11 12  1  0  0  0  0
 11 27  1  0  0  0  0
 12 13  2  0  0  0  0
 14 15  1  0  0  0  0
 14 28  1  0  0  0  0
 14 29  1  0  0  0  0
 15 16  2  0  0  0  0
 15 30  1  0  0  0  0
 16 31  1  0  0  0  0
 16 32  1  0  0  0  0
M  END
$$$$
