ZINC00057480
 OpenBabel08292219463D

 43 44  0  0  1  0  0  0  0  0999 V2000
   -0.0187    1.5258    0.0104 C   0  0  0  0  0  0  0  0  0  0  0  0
    0.0021   -0.0041    0.0020 C   0  0  1  0  0  0  0  0  0  0  0  0
   -1.0205   -0.3814    0.0098 H   0  0  0  0  0  0  0  0  0  0  0  0
    0.7182   -0.4975   -1.2568 C   0  0  1  0  0  0  0  0  0  0  0  0
    0.8116   -1.5829   -1.2198 H   0  0  0  0  0  0  0  0  0  0  0  0
   -0.0771   -0.1029   -2.4745 C   0  0  0  0  0  0  0  0  0  0  0  0
    0.0941    1.1497   -3.0345 C   0  0  0  0  0  0  0  0  0  0  0  0
   -0.6341    1.5140   -4.1505 C   0  0  0  0  0  0  0  0  0  0  0  0
   -1.5374    0.6217   -4.7096 C   0  0  0  0  0  0  0  0  0  0  0  0
   -1.7070   -0.6346   -4.1460 C   0  0  0  0  0  0  0  0  0  0  0  0
   -0.9726   -0.9960   -3.0331 C   0  0  0  0  0  0  0  0  0  0  0  0
   -2.2553    0.9780   -5.8071 O   0  0  0  0  0  0  0  0  0  0  0  0
    2.0188    0.0904   -1.3262 O   0  0  0  0  0  0  0  0  0  0  0  0
    0.7126   -0.4907    1.1921 N   0  3  0  0  0  0  0  0  0  0  0  0
   -0.0398   -0.1189    2.3978 C   0  0  0  0  0  0  0  0  0  0  0  0
    0.7001   -0.6257    3.6373 C   0  0  0  0  0  0  0  0  0  0  0  0
   -0.0717   -0.2443    4.8741 C   0  0  0  0  0  0  0  0  0  0  0  0
    0.1769    0.9647    5.4973 C   0  0  0  0  0  0  0  0  0  0  0  0
   -0.5290    1.3165    6.6315 C   0  0  0  0  0  0  0  0  0  0  0  0
   -1.4884    0.4558    7.1449 C   0  0  0  0  0  0  0  0  0  0  0  0
   -1.7363   -0.7565    6.5174 C   0  0  0  0  0  0  0  0  0  0  0  0
   -1.0313   -1.1013    5.3805 C   0  0  0  0  0  0  0  0  0  0  0  0
   -2.1838    0.7994    8.2607 O   0  0  0  0  0  0  0  0  0  0  0  0
    1.0039    1.9031    0.0027 H   0  0  0  0  0  0  0  0  0  0  0  0
   -0.5459    1.8868   -0.8726 H   0  0  0  0  0  0  0  0  0  0  0  0
   -0.5289    1.8773    0.9072 H   0  0  0  0  0  0  0  0  0  0  0  0
    0.7975    1.8439   -2.5989 H   0  0  0  0  0  0  0  0  0  0  0  0
   -0.5005    2.4927   -4.5871 H   0  0  0  0  0  0  0  0  0  0  0  0
   -2.4096   -1.3309   -4.5794 H   0  0  0  0  0  0  0  0  0  0  0  0
   -1.1011   -1.9755   -2.5967 H   0  0  0  0  0  0  0  0  0  0  0  0
   -1.8251    0.7616   -6.6457 H   0  0  0  0  0  0  0  0  0  0  0  0
    2.0123    1.0567   -1.3619 H   0  0  0  0  0  0  0  0  0  0  0  0
    0.7982   -1.4950    1.1455 H   0  0  0  0  0  0  0  0  0  0  0  0
   -0.1324    0.9660    2.4481 H   0  0  0  0  0  0  0  0  0  0  0  0
   -1.0328   -0.5668    2.3589 H   0  0  0  0  0  0  0  0  0  0  0  0
    0.7927   -1.7106    3.5869 H   0  0  0  0  0  0  0  0  0  0  0  0
    1.6931   -0.1778    3.6761 H   0  0  0  0  0  0  0  0  0  0  0  0
    0.9238    1.6344    5.0973 H   0  0  0  0  0  0  0  0  0  0  0  0
   -0.3339    2.2606    7.1184 H   0  0  0  0  0  0  0  0  0  0  0  0
   -2.4826   -1.4282    6.9151 H   0  0  0  0  0  0  0  0  0  0  0  0
   -1.2270   -2.0429    4.8892 H   0  0  0  0  0  0  0  0  0  0  0  0
   -3.0005    1.2851    8.0812 H   0  0  0  0  0  0  0  0  0  0  0  0
    1.6317   -0.0761    1.2281 H   0  0  0  0  0  0  0  0  0  0  0  0
  1  2  1  0  0  0  0
  1 24  1  0  0  0  0
  1 25  1  0  0  0  0
  1 26  1  0  0  0  0
  2  3  1  1  0  0  0
  2  4  1  0  0  0  0
  2 14  1  0  0  0  0
  4  5  1  1  0  0  0
  4  6  1  0  0  0  0
  4 13  1  0  0  0  0
  6 11  2  0  0  0  0
  6  7  1  0  0  0  0
  7  8  2  0  0  0  0
  7 27  1  0  0  0  0
  8  9  1  0  0  0  0
  8 28  1  0  0  0  0
  9 10  2  0  0  0  0
  9 12  1  0  0  0  0
 10 11  1  0  0  0  0
 10 29  1  0  0  0  0
 11 30  1  0  0  0  0
 12 31  1  0  0  0  0
 13 32  1  0  0  0  0
 14 15  1  0  0  0  0
 14 33  1  0  0  0  0
 14 43  1  0  0  0  0
 15 16  1  0  0  0  0
 15 34  1  0  0  0  0
 15 35  1  0  0  0  0
 16 17  1  0  0  0  0
 16 36  1  0  0  0  0
 16 37  1  0  0  0  0
 17 22  2  0  0  0  0
 17 18  1  0  0  0  0
 18 19  2  0  0  0  0
 18 38  1  0  0  0  0
 19 20  1  0  0  0  0
 19 39  1  0  0  0  0
 20 21  2  0  0  0  0
 20 23  1  0  0  0  0
 21 22  1  0  0  0  0
 21 40  1  0  0  0  0
 22 41  1  0  0  0  0
 23 42  1  0  0  0  0
M  CHG  1  14   1
M  END
$$$$
