ZINC00001341
 OpenBabel08292219463D

 28 28  0  0  0  0  0  0  0  0999 V2000
   -0.0187    1.5258    0.0104 C   0  0  0  0  0  0  0  0  0  0  0  0
    0.0021   -0.0041    0.0020 C   0  0  0  0  0  0  0  0  0  0  0  0
    0.6897   -0.4778   -1.2066 N   0  3  0  0  0  0  0  0  0  0  0  0
   -0.0208    0.0088   -2.3967 C   0  0  0  0  0  0  0  0  0  0  0  0
    2.0678    0.0307   -1.2170 C   0  0  0  0  0  0  0  0  0  0  0  0
    0.7086   -1.8757   -1.2143 C   0  0  0  0  0  0  0  0  0  0  0  0
    0.1240   -2.5802   -0.1778 C   0  0  0  0  0  0  0  0  0  0  0  0
    0.1411   -3.9625   -0.1825 C   0  0  0  0  0  0  0  0  0  0  0  0
    0.7430   -4.6436   -1.2231 C   0  0  0  0  0  0  0  0  0  0  0  0
    1.3301   -3.9393   -2.2639 C   0  0  0  0  0  0  0  0  0  0  0  0
    1.3063   -2.5519   -2.2599 C   0  0  0  0  0  0  0  0  0  0  0  0
    1.9227   -4.6069   -3.2886 O   0  0  0  0  0  0  0  0  0  0  0  0
    1.0039    1.9031    0.0027 H   0  0  0  0  0  0  0  0  0  0  0  0
   -0.5459    1.8868   -0.8726 H   0  0  0  0  0  0  0  0  0  0  0  0
   -0.5289    1.8773    0.9072 H   0  0  0  0  0  0  0  0  0  0  0  0
    0.5293   -0.3651    0.8851 H   0  0  0  0  0  0  0  0  0  0  0  0
   -1.0205   -0.3814    0.0098 H   0  0  0  0  0  0  0  0  0  0  0  0
   -0.0356    1.0987   -2.3907 H   0  0  0  0  0  0  0  0  0  0  0  0
    0.4894   -0.3427   -3.2935 H   0  0  0  0  0  0  0  0  0  0  0  0
   -1.0434   -0.3685   -2.3890 H   0  0  0  0  0  0  0  0  0  0  0  0
    2.5950   -0.3304   -0.3340 H   0  0  0  0  0  0  0  0  0  0  0  0
    2.5780   -0.3209   -2.1138 H   0  0  0  0  0  0  0  0  0  0  0  0
    2.0530    1.1205   -1.2110 H   0  0  0  0  0  0  0  0  0  0  0  0
   -0.3463   -2.0496    0.6368 H   0  0  0  0  0  0  0  0  0  0  0  0
   -0.3161   -4.5105    0.6281 H   0  0  0  0  0  0  0  0  0  0  0  0
    0.7567   -5.7236   -1.2259 H   0  0  0  0  0  0  0  0  0  0  0  0
    1.7585   -2.0013   -3.0715 H   0  0  0  0  0  0  0  0  0  0  0  0
    1.3272   -4.8084   -4.0233 H   0  0  0  0  0  0  0  0  0  0  0  0
  1  2  1  0  0  0  0
  1 13  1  0  0  0  0
  1 14  1  0  0  0  0
  1 15  1  0  0  0  0
  2  3  1  0  0  0  0
  2 16  1  0  0  0  0
  2 17  1  0  0  0  0
  3  4  1  0  0  0  0
  3  5  1  0  0  0  0
  3  6  1  0  0  0  0
  4 18  1  0  0  0  0
  4 19  1  0  0  0  0
  4 20  1  0  0  0  0
  5 21  1  0  0  0  0
  5 22  1  0  0  0  0
  5 23  1  0  0  0  0
  6 11  2  0  0  0  0
  6  7  1  0  0  0  0
  7  8  2  0  0  0  0
  7 24  1  0  0  0  0
  8  9  1  0  0  0  0
  8 25  1  0  0  0  0
  9 10  2  0  0  0  0
  9 26  1  0  0  0  0
 10 11  1  0  0  0  0
 10 12  1  0  0  0  0
 11 27  1  0  0  0  0
 12 28  1  0  0  0  0
M  CHG  1   3   1
M  END
$$$$
