ZINC03813088
 OpenBabel08292219463D

 58 58  0  0  1  0  0  0  0  0999 V2000
   -0.0187    1.5258    0.0104 C   0  0  0  0  0  0  0  0  0  0  0  0
    0.0021   -0.0041    0.0020 C   0  0  0  0  0  0  0  0  0  0  0  0
    0.7182   -0.4975   -1.2568 C   0  0  0  0  0  0  0  0  0  0  0  0
    0.7390   -2.0273   -1.2652 C   0  0  0  0  0  0  0  0  0  0  0  0
    1.4551   -2.5207   -2.5240 C   0  0  0  0  0  0  0  0  0  0  0  0
    1.4758   -4.0506   -2.5324 C   0  0  1  0  0  0  0  0  0  0  0  0
    0.4580   -4.4283   -2.4352 H   0  0  0  0  0  0  0  0  0  0  0  0
    2.0707   -4.5378   -3.8285 C   0  0  0  0  0  0  0  0  0  0  0  0
    3.0937   -5.3559   -3.8130 C   0  0  0  0  0  0  0  0  0  0  0  0
    3.6886   -5.8431   -5.1091 C   0  0  1  0  0  0  0  0  0  0  0  0
    3.1593   -5.4112   -5.9584 H   0  0  0  0  0  0  0  0  0  0  0  0
    5.1988   -5.5013   -5.1775 C   0  0  1  0  0  0  0  0  0  0  0  0
    5.6661   -5.6124   -4.1991 H   0  0  0  0  0  0  0  0  0  0  0  0
    5.7342   -6.5652   -6.1677 C   0  0  0  0  0  0  0  0  0  0  0  0
    4.9488   -7.8214   -5.8347 C   0  0  0  0  0  0  0  0  0  0  0  0
    5.2904   -8.9585   -6.0554 O   0  0  0  0  0  0  0  0  0  0  0  0
    3.6544   -7.3841   -5.1758 C   0  0  2  0  0  0  0  0  0  0  0  0
    3.5903   -7.7992   -4.1699 H   0  0  0  0  0  0  0  0  0  0  0  0
    2.4572   -7.8449   -6.0095 C   0  0  0  0  0  0  0  0  0  0  0  0
    2.3621   -9.3713   -5.9651 C   0  0  0  0  0  0  0  0  0  0  0  0
    1.1649   -9.8322   -6.7989 C   0  0  0  0  0  0  0  0  0  0  0  0
    1.0698  -11.3586   -6.7545 C   0  0  0  0  0  0  0  0  0  0  0  0
   -0.1275  -11.8195   -7.5882 C   0  0  0  0  0  0  0  0  0  0  0  0
   -0.2226  -13.3458   -7.5438 C   0  0  0  0  0  0  0  0  0  0  0  0
   -1.4018  -13.7998   -8.3650 C   0  0  0  0  0  0  0  0  0  0  0  0
   -2.1013  -12.9786   -8.9332 O   0  0  0  0  0  0  0  0  0  0  0  0
   -1.6563  -14.9883   -8.4613 O   0  0  0  0  0  1  0  0  0  0  0  0
    5.3985   -4.1812   -5.6868 O   0  0  0  0  0  0  0  0  0  0  0  0
    2.2655   -4.5223   -1.4388 O   0  0  0  0  0  0  0  0  0  0  0  0
    1.0039    1.9031    0.0027 H   0  0  0  0  0  0  0  0  0  0  0  0
   -0.5459    1.8868   -0.8726 H   0  0  0  0  0  0  0  0  0  0  0  0
   -0.5289    1.8773    0.9072 H   0  0  0  0  0  0  0  0  0  0  0  0
    0.5293   -0.3651    0.8851 H   0  0  0  0  0  0  0  0  0  0  0  0
   -1.0205   -0.3814    0.0098 H   0  0  0  0  0  0  0  0  0  0  0  0
    0.1910   -0.1364   -2.1398 H   0  0  0  0  0  0  0  0  0  0  0  0
    1.7408   -0.1202   -1.2645 H   0  0  0  0  0  0  0  0  0  0  0  0
    1.2661   -2.3884   -0.3821 H   0  0  0  0  0  0  0  0  0  0  0  0
   -0.2836   -2.4046   -1.2575 H   0  0  0  0  0  0  0  0  0  0  0  0
    0.9279   -2.1597   -3.4071 H   0  0  0  0  0  0  0  0  0  0  0  0
    2.4777   -2.1435   -2.5317 H   0  0  0  0  0  0  0  0  0  0  0  0
    1.6537   -4.2124   -4.7701 H   0  0  0  0  0  0  0  0  0  0  0  0
    3.5108   -5.6813   -2.8714 H   0  0  0  0  0  0  0  0  0  0  0  0
    5.5434   -6.2584   -7.1961 H   0  0  0  0  0  0  0  0  0  0  0  0
    6.8001   -6.7297   -6.0101 H   0  0  0  0  0  0  0  0  0  0  0  0
    1.5432   -7.4120   -5.6031 H   0  0  0  0  0  0  0  0  0  0  0  0
    2.5861   -7.5188   -7.0416 H   0  0  0  0  0  0  0  0  0  0  0  0
    3.2761   -9.8043   -6.3716 H   0  0  0  0  0  0  0  0  0  0  0  0
    2.2333   -9.6975   -4.9331 H   0  0  0  0  0  0  0  0  0  0  0  0
    0.2509   -9.3992   -6.3924 H   0  0  0  0  0  0  0  0  0  0  0  0
    1.2937   -9.5061   -7.8309 H   0  0  0  0  0  0  0  0  0  0  0  0
    1.9838  -11.7916   -7.1609 H   0  0  0  0  0  0  0  0  0  0  0  0
    0.9409  -11.6847   -5.7224 H   0  0  0  0  0  0  0  0  0  0  0  0
   -1.0415  -11.3865   -7.1818 H   0  0  0  0  0  0  0  0  0  0  0  0
    0.0014  -11.4933   -8.6203 H   0  0  0  0  0  0  0  0  0  0  0  0
    0.6915  -13.7788   -7.9502 H   0  0  0  0  0  0  0  0  0  0  0  0
   -0.3514  -13.6720   -6.5118 H   0  0  0  0  0  0  0  0  0  0  0  0
    6.3275   -3.9199   -5.7489 H   0  0  0  0  0  0  0  0  0  0  0  0
    3.1852   -4.2243   -1.4604 H   0  0  0  0  0  0  0  0  0  0  0  0
  1  2  1  0  0  0  0
  1 30  1  0  0  0  0
  1 31  1  0  0  0  0
  1 32  1  0  0  0  0
  2  3  1  0  0  0  0
  2 33  1  0  0  0  0
  2 34  1  0  0  0  0
  3  4  1  0  0  0  0
  3 35  1  0  0  0  0
  3 36  1  0  0  0  0
  4  5  1  0  0  0  0
  4 37  1  0  0  0  0
  4 38  1  0  0  0  0
  5  6  1  0  0  0  0
  5 39  1  0  0  0  0
  5 40  1  0  0  0  0
  6  7  1  1  0  0  0
  6  8  1  0  0  0  0
  6 29  1  0  0  0  0
  8  9  2  0  0  0  0
  8 41  1  0  0  0  0
  9 10  1  0  0  0  0
  9 42  1  0  0  0  0
 10 11  1  6  0  0  0
 10 17  1  0  0  0  0
 10 12  1  0  0  0  0
 12 13  1  1  0  0  0
 12 14  1  0  0  0  0
 12 28  1  0  0  0  0
 14 15  1  0  0  0  0
 14 43  1  0  0  0  0
 14 44  1  0  0  0  0
 15 16  2  0  0  0  0
 15 17  1  0  0  0  0
 17 18  1  1  0  0  0
 17 19  1  0  0  0  0
 19 20  1  0  0  0  0
 19 45  1  0  0  0  0
 19 46  1  0  0  0  0
 20 21  1  0  0  0  0
 20 47  1  0  0  0  0
 20 48  1  0  0  0  0
 21 22  1  0  0  0  0
 21 49  1  0  0  0  0
 21 50  1  0  0  0  0
 22 23  1  0  0  0  0
 22 51  1  0  0  0  0
 22 52  1  0  0  0  0
 23 24  1  0  0  0  0
 23 53  1  0  0  0  0
 23 54  1  0  0  0  0
 24 25  1  0  0  0  0
 24 55  1  0  0  0  0
 24 56  1  0  0  0  0
 25 26  2  0  0  0  0
 25 27  1  0  0  0  0
 28 57  1  0  0  0  0
 29 58  1  0  0  0  0
M  END
$$$$
