ZINC06745272
 OpenBabel08292219463D

 48 50  0  0  0  0  0  0  0  0999 V2000
   12.6598    0.7994    4.7296 C   0  0  0  0  0  0  0  0  0  0  0  0
   11.2450    1.1232    4.5299 N   0  0  0  0  0  0  0  0  0  0  0  0
   10.5992    0.6749    3.4352 C   0  0  0  0  0  0  0  0  0  0  0  0
   11.1903    0.0021    2.6139 O   0  0  0  0  0  0  0  0  0  0  0  0
    9.1682    1.0023    3.2331 C   0  0  0  0  0  0  0  0  0  0  0  0
    8.5065    0.5323    2.1035 C   0  0  0  0  0  0  0  0  0  0  0  0
    7.1634    0.8541    1.9255 C   0  0  0  0  0  0  0  0  0  0  0  0
    6.5341    1.6280    2.8971 C   0  0  0  0  0  0  0  0  0  0  0  0
    7.2577    2.0536    3.9963 C   0  0  0  0  0  0  0  0  0  0  0  0
    8.5280    1.7380    4.1346 N   0  0  0  0  0  0  0  0  0  0  0  0
    6.4829    0.4194    0.8345 O   0  0  0  0  0  0  0  0  0  0  0  0
    5.1810    0.7894    0.7051 C   0  0  0  0  0  0  0  0  0  0  0  0
    4.1711   -0.1261    0.9639 C   0  0  0  0  0  0  0  0  0  0  0  0
    2.8480    0.2482    0.8328 C   0  0  0  0  0  0  0  0  0  0  0  0
    2.5278    1.5406    0.4415 C   0  0  0  0  0  0  0  0  0  0  0  0
    3.5395    2.4567    0.1765 C   0  0  0  0  0  0  0  0  0  0  0  0
    4.8633    2.0821    0.3147 C   0  0  0  0  0  0  0  0  0  0  0  0
    3.2293    3.7134   -0.2103 F   0  0  0  0  0  0  0  0  0  0  0  0
    1.1844    1.9208    0.3080 N   0  0  0  0  0  0  0  0  0  0  0  0
    0.2360    1.3165    1.0509 C   0  0  0  0  0  0  0  0  0  0  0  0
    0.5320    0.3845    1.7736 O   0  0  0  0  0  0  0  0  0  0  0  0
   -1.0414    1.7418    0.9886 N   0  0  0  0  0  0  0  0  0  0  0  0
   -2.0118    1.1665    1.8174 C   0  0  0  0  0  0  0  0  0  0  0  0
   -1.9608   -0.1901    2.1104 C   0  0  0  0  0  0  0  0  0  0  0  0
   -2.9166   -0.7542    2.9322 C   0  0  0  0  0  0  0  0  0  0  0  0
   -3.9307    0.0291    3.4552 C   0  0  0  0  0  0  0  0  0  0  0  0
   -3.9868    1.3798    3.1606 C   0  0  0  0  0  0  0  0  0  0  0  0
   -3.0302    1.9500    2.3434 C   0  0  0  0  0  0  0  0  0  0  0  0
   -5.0921    2.2298    3.7323 C   0  0  0  0  0  0  0  0  0  0  0  0
   -4.9377    3.5503    3.2969 F   0  0  0  0  0  0  0  0  0  0  0  0
   -6.3289    1.7382    3.3011 F   0  0  0  0  0  0  0  0  0  0  0  0
   -5.0360    2.1899    5.1296 F   0  0  0  0  0  0  0  0  0  0  0  0
   -5.1342   -0.6843    4.4830 Cl  0  0  0  0  0  0  0  0  0  0  0  0
   12.7818   -0.2827    4.7766 H   0  0  0  0  0  0  0  0  0  0  0  0
   13.2439    1.1951    3.8988 H   0  0  0  0  0  0  0  0  0  0  0  0
   13.0063    1.2450    5.6621 H   0  0  0  0  0  0  0  0  0  0  0  0
   10.7731    1.6602    5.1855 H   0  0  0  0  0  0  0  0  0  0  0  0
    9.0276   -0.0694    1.3735 H   0  0  0  0  0  0  0  0  0  0  0  0
    5.4922    1.8928    2.7937 H   0  0  0  0  0  0  0  0  0  0  0  0
    6.7733    2.6540    4.7521 H   0  0  0  0  0  0  0  0  0  0  0  0
    4.4196   -1.1322    1.2677 H   0  0  0  0  0  0  0  0  0  0  0  0
    2.0626   -0.4651    1.0345 H   0  0  0  0  0  0  0  0  0  0  0  0
    5.6499    2.7942    0.1134 H   0  0  0  0  0  0  0  0  0  0  0  0
    0.9378    2.6186   -0.3191 H   0  0  0  0  0  0  0  0  0  0  0  0
   -1.2883    2.4464    0.3694 H   0  0  0  0  0  0  0  0  0  0  0  0
   -1.1720   -0.8026    1.6992 H   0  0  0  0  0  0  0  0  0  0  0  0
   -2.8752   -1.8083    3.1633 H   0  0  0  0  0  0  0  0  0  0  0  0
   -3.0746    3.0043    2.1135 H   0  0  0  0  0  0  0  0  0  0  0  0
  1  2  1  0  0  0  0
  1 34  1  0  0  0  0
  1 35  1  0  0  0  0
  1 36  1  0  0  0  0
  2  3  1  0  0  0  0
  2 37  1  0  0  0  0
  3  4  2  0  0  0  0
  3  5  1  0  0  0  0
  5 10  2  0  0  0  0
  5  6  1  0  0  0  0
  6  7  2  0  0  0  0
  6 38  1  0  0  0  0
  7  8  1  0  0  0  0
  7 11  1  0  0  0  0
  8  9  2  0  0  0  0
  8 39  1  0  0  0  0
  9 10  1  0  0  0  0
  9 40  1  0  0  0  0
 11 12  1  0  0  0  0
 12 17  2  0  0  0  0
 12 13  1  0  0  0  0
 13 14  2  0  0  0  0
 13 41  1  0  0  0  0
 14 15  1  0  0  0  0
 14 42  1  0  0  0  0
 15 16  2  0  0  0  0
 15 19  1  0  0  0  0
 16 17  1  0  0  0  0
 16 18  1  0  0  0  0
 17 43  1  0  0  0  0
 19 20  1  0  0  0  0
 19 44  1  0  0  0  0
 20 21  2  0  0  0  0
 20 22  1  0  0  0  0
 22 23  1  0  0  0  0
 22 45  1  0  0  0  0
 23 28  2  0  0  0  0
 23 24  1  0  0  0  0
 24 25  2  0  0  0  0
 24 46  1  0  0  0  0
 25 26  1  0  0  0  0
 25 47  1  0  0  0  0
 26 27  2  0  0  0  0
 26 33  1  0  0  0  0
 27 28  1  0  0  0  0
 27 29  1  0  0  0  0
 28 48  1  0  0  0  0
 29 30  1  0  0  0  0
 29 31  1  0  0  0  0
 29 32  1  0  0  0  0
M  END
$$$$
