ZINC22010387
 OpenBabel08292219463D

 31 32  0  0  1  0  0  0  0  0999 V2000
    2.8775   -0.4240   -2.3958 C   0  0  0  0  0  0  0  0  0  0  0  0
    2.1303    0.0503   -1.1477 C   0  0  1  0  0  0  0  0  0  0  0  0
    2.6160   -0.3370   -0.2399 H   0  0  0  0  0  0  0  0  0  0  0  0
    2.0882    1.5806   -1.1277 C   0  0  1  0  0  0  0  0  0  0  0  0
    1.5866    1.9877   -2.0180 H   0  0  0  0  0  0  0  0  0  0  0  0
    1.3249    2.0168    0.0002 O   0  0  0  0  0  0  0  0  0  0  0  0
   -0.0187    1.5267    0.0104 C   0  0  0  0  0  0  0  0  0  0  0  0
    0.0021   -0.0041    0.0020 C   0  0  0  0  0  0  0  0  0  0  0  0
    0.7564   -0.4723   -1.1697 N   0  0  0  0  0  0  0  0  0  0  0  0
    0.7524   -1.9393   -1.2466 C   0  0  0  0  0  0  0  0  0  0  0  0
    3.4912    2.1213   -1.0254 C   0  0  0  0  0  0  0  0  0  0  0  0
    4.1281    2.1630    0.2008 C   0  0  0  0  0  0  0  0  0  0  0  0
    5.4168    2.6545    0.2939 C   0  0  0  0  0  0  0  0  0  0  0  0
    6.0646    3.1140   -0.8375 C   0  0  0  0  0  0  0  0  0  0  0  0
    5.4258    3.0772   -2.0628 C   0  0  0  0  0  0  0  0  0  0  0  0
    4.1390    2.5808   -2.1568 C   0  0  0  0  0  0  0  0  0  0  0  0
    3.9054   -0.0326   -2.3786 H   0  0  0  0  0  0  0  0  0  0  0  0
    2.3603   -0.0568   -3.2945 H   0  0  0  0  0  0  0  0  0  0  0  0
    2.9040   -1.5236   -2.4115 H   0  0  0  0  0  0  0  0  0  0  0  0
   -0.5322    1.8834    0.9154 H   0  0  0  0  0  0  0  0  0  0  0  0
   -0.5494    1.8930   -0.8808 H   0  0  0  0  0  0  0  0  0  0  0  0
    0.4843   -0.3693    0.9208 H   0  0  0  0  0  0  0  0  0  0  0  0
   -1.0288   -0.3846   -0.0472 H   0  0  0  0  0  0  0  0  0  0  0  0
   -0.2857   -2.3028   -1.2616 H   0  0  0  0  0  0  0  0  0  0  0  0
    1.2735   -2.3538   -0.3710 H   0  0  0  0  0  0  0  0  0  0  0  0
    1.2664   -2.2597   -2.1648 H   0  0  0  0  0  0  0  0  0  0  0  0
    3.6203    1.8081    1.0854 H   0  0  0  0  0  0  0  0  0  0  0  0
    5.9158    2.6836    1.2512 H   0  0  0  0  0  0  0  0  0  0  0  0
    7.0698    3.5021   -0.7640 H   0  0  0  0  0  0  0  0  0  0  0  0
    5.9318    3.4365   -2.9467 H   0  0  0  0  0  0  0  0  0  0  0  0
    3.6398    2.5523   -3.1140 H   0  0  0  0  0  0  0  0  0  0  0  0
  1  2  1  0  0  0  0
  1 17  1  0  0  0  0
  1 18  1  0  0  0  0
  1 19  1  0  0  0  0
  2  3  1  1  0  0  0
  2  9  1  0  0  0  0
  2  4  1  0  0  0  0
  4  5  1  6  0  0  0
  4  6  1  0  0  0  0
  4 11  1  0  0  0  0
  6  7  1  0  0  0  0
  7  8  1  0  0  0  0
  7 20  1  0  0  0  0
  7 21  1  0  0  0  0
  8  9  1  0  0  0  0
  8 22  1  0  0  0  0
  8 23  1  0  0  0  0
  9 10  1  0  0  0  0
 10 24  1  0  0  0  0
 10 25  1  0  0  0  0
 10 26  1  0  0  0  0
 11 16  2  0  0  0  0
 11 12  1  0  0  0  0
 12 13  2  0  0  0  0
 12 27  1  0  0  0  0
 13 14  1  0  0  0  0
 13 28  1  0  0  0  0
 14 15  2  0  0  0  0
 14 29  1  0  0  0  0
 15 16  1  0  0  0  0
 15 30  1  0  0  0  0
 16 31  1  0  0  0  0
M  END
$$$$
