ZINC05508997
 OpenBabel08292219463D

 28 28  0  0  0  0  0  0  0  0999 V2000
   -0.0187    1.5258    0.0104 C   0  0  0  0  0  0  0  0  0  0  0  0
    0.0021   -0.0041    0.0020 C   0  0  0  0  0  0  0  0  0  0  0  0
   -1.4333   -0.5336    0.0129 C   0  0  0  0  0  0  0  0  0  0  0  0
   -2.0868   -0.1532   -1.3023 C   0  0  0  0  0  0  0  0  0  0  0  0
   -1.6191   -0.5089   -2.3627 O   0  0  0  0  0  0  0  0  0  0  0  0
   -3.2081    0.5964   -1.2480 N   0  0  0  0  0  0  0  0  0  0  0  0
   -3.7366    0.9973   -0.0861 C   0  0  0  0  0  0  0  0  0  0  0  0
   -3.2329    0.7122    1.1202 N   0  0  0  0  0  0  0  0  0  0  0  0
   -2.1137   -0.0275    1.2707 C   0  0  0  0  0  0  0  0  0  0  0  0
   -1.6691   -0.2782    2.3703 O   0  0  0  0  0  0  0  0  0  0  0  0
   -3.9161    1.2181    2.3132 C   0  0  0  0  0  0  0  0  0  0  0  0
   -4.7474    1.6698   -0.1295 O   0  0  0  0  0  0  0  0  0  0  0  0
   -1.3733   -2.0607    0.0857 C   0  0  0  0  0  0  0  0  0  0  0  0
   -2.7946   -2.6270    0.0985 C   0  0  0  0  0  0  0  0  0  0  0  0
    1.0039    1.9031    0.0027 H   0  0  0  0  0  0  0  0  0  0  0  0
   -0.5459    1.8868   -0.8726 H   0  0  0  0  0  0  0  0  0  0  0  0
   -0.5289    1.8773    0.9072 H   0  0  0  0  0  0  0  0  0  0  0  0
    0.5123   -0.3556   -0.8948 H   0  0  0  0  0  0  0  0  0  0  0  0
    0.5293   -0.3651    0.8851 H   0  0  0  0  0  0  0  0  0  0  0  0
   -4.7938    1.7910    2.0138 H   0  0  0  0  0  0  0  0  0  0  0  0
   -4.2250    0.3800    2.9379 H   0  0  0  0  0  0  0  0  0  0  0  0
   -3.2379    1.8599    2.8756 H   0  0  0  0  0  0  0  0  0  0  0  0
   -3.6435    0.8523   -2.0761 H   0  0  0  0  0  0  0  0  0  0  0  0
   -0.8368   -2.4451   -0.7818 H   0  0  0  0  0  0  0  0  0  0  0  0
   -0.8544   -2.3609    0.9961 H   0  0  0  0  0  0  0  0  0  0  0  0
   -2.7518   -3.7149    0.1503 H   0  0  0  0  0  0  0  0  0  0  0  0
   -3.3310   -2.2426    0.9660 H   0  0  0  0  0  0  0  0  0  0  0  0
   -3.3135   -2.3268   -0.8119 H   0  0  0  0  0  0  0  0  0  0  0  0
  1  2  1  0  0  0  0
  1 15  1  0  0  0  0
  1 16  1  0  0  0  0
  1 17  1  0  0  0  0
  2 18  1  0  0  0  0
  2 19  1  0  0  0  0
  2  3  1  0  0  0  0
  3  9  1  0  0  0  0
  3 13  1  0  0  0  0
  3  4  1  0  0  0  0
  4  5  2  0  0  0  0
  4  6  1  0  0  0  0
  6 23  1  0  0  0  0
  6  7  1  0  0  0  0
  7 12  2  0  0  0  0
  7  8  1  0  0  0  0
  8  9  1  0  0  0  0
  8 11  1  0  0  0  0
  9 10  2  0  0  0  0
 11 20  1  0  0  0  0
 11 21  1  0  0  0  0
 11 22  1  0  0  0  0
 13 14  1  0  0  0  0
 13 24  1  0  0  0  0
 13 25  1  0  0  0  0
 14 26  1  0  0  0  0
 14 27  1  0  0  0  0
 14 28  1  0  0  0  0
M  END
$$$$
