ZINC03875376
 OpenBabel08292219463D

 92 93  0  0  0  0  0  0  0  0999 V2000
   -4.1904  -13.9590    5.9428 C   0  0  0  0  0  0  0  0  0  0  0  0
   -2.9632  -13.1590    5.9297 N   0  0  0  0  0  0  0  0  0  0  0  0
   -3.0423  -11.6961    5.9382 C   0  0  0  0  0  0  0  0  0  0  0  0
   -3.0900  -11.1795    4.4989 C   0  0  0  0  0  0  0  0  0  0  0  0
   -3.1727   -9.6518    4.5078 C   0  0  0  0  0  0  0  0  0  0  0  0
   -3.2204   -9.1352    3.0684 C   0  0  0  0  0  0  0  0  0  0  0  0
   -3.3030   -7.6075    3.0774 C   0  0  0  0  0  0  0  0  0  0  0  0
   -3.3507   -7.0909    1.6380 C   0  0  0  0  0  0  0  0  0  0  0  0
   -3.4334   -5.5631    1.6469 C   0  0  0  0  0  0  0  0  0  0  0  0
   -3.4811   -5.0466    0.2076 C   0  0  0  0  0  0  0  0  0  0  0  0
   -3.5637   -3.5188    0.2165 C   0  0  0  0  0  0  0  0  0  0  0  0
   -3.6114   -3.0022   -1.2229 C   0  0  0  0  0  0  0  0  0  0  0  0
   -3.6906   -1.5394   -1.2143 N   0  0  0  0  0  0  0  0  0  0  0  0
   -4.9969   -0.8766   -1.1927 C   0  0  0  0  0  0  0  0  0  0  0  0
   -2.5616   -0.8034   -1.2264 C   0  0  0  0  0  0  0  0  0  0  0  0
   -1.4780   -1.3531   -1.2443 O   0  0  0  0  0  0  0  0  0  0  0  0
   -2.6343    0.5414   -1.2185 O   0  0  0  0  0  0  0  0  0  0  0  0
   -1.4666    1.2235   -1.3570 C   0  0  0  0  0  0  0  0  0  0  0  0
   -0.7975    1.2160   -2.5723 C   0  0  0  0  0  0  0  0  0  0  0  0
    0.3862    1.9141   -2.7120 C   0  0  0  0  0  0  0  0  0  0  0  0
    0.9071    2.6157   -1.6403 C   0  0  0  0  0  0  0  0  0  0  0  0
    0.2447    2.6208   -0.4269 C   0  0  0  0  0  0  0  0  0  0  0  0
   -0.9397    1.9240   -0.2821 C   0  0  0  0  0  0  0  0  0  0  0  0
    0.7733    3.3318    0.6545 N   0  3  0  0  0  0  0  0  0  0  0  0
    2.0266    3.9813    0.2478 C   0  0  0  0  0  0  0  0  0  0  0  0
   -0.1898    4.3534    1.0867 C   0  0  0  0  0  0  0  0  0  0  0  0
    1.0387    2.4079    1.7653 C   0  0  0  0  0  0  0  0  0  0  0  0
   -1.7614  -13.7687    5.9098 C   0  0  0  0  0  0  0  0  0  0  0  0
   -0.7435  -13.1051    5.8989 O   0  0  0  0  0  0  0  0  0  0  0  0
   -1.6887  -15.1135    5.9019 O   0  0  0  0  0  0  0  0  0  0  0  0
   -0.4508  -15.6652    6.0074 C   0  0  0  0  0  0  0  0  0  0  0  0
    0.1151  -16.3155    4.9203 C   0  0  0  0  0  0  0  0  0  0  0  0
    1.3746  -16.8720    5.0288 C   0  0  0  0  0  0  0  0  0  0  0  0
    2.0678  -16.7892    6.2225 C   0  0  0  0  0  0  0  0  0  0  0  0
    1.5041  -16.1459    7.3087 C   0  0  0  0  0  0  0  0  0  0  0  0
    0.2463  -15.5840    7.2038 C   0  0  0  0  0  0  0  0  0  0  0  0
    2.2072  -16.0644    8.5142 N   0  3  0  0  0  0  0  0  0  0  0  0
    1.4348  -16.7215    9.5770 C   0  0  0  0  0  0  0  0  0  0  0  0
    3.5073  -16.7327    8.3690 C   0  0  0  0  0  0  0  0  0  0  0  0
    2.4184  -14.6532    8.8634 C   0  0  0  0  0  0  0  0  0  0  0  0
   -4.5091  -14.1522    4.9184 H   0  0  0  0  0  0  0  0  0  0  0  0
   -4.0016  -14.9056    6.4492 H   0  0  0  0  0  0  0  0  0  0  0  0
   -4.9735  -13.4145    6.4704 H   0  0  0  0  0  0  0  0  0  0  0  0
   -2.1662  -11.2878    6.4419 H   0  0  0  0  0  0  0  0  0  0  0  0
   -3.9433  -11.3841    6.4663 H   0  0  0  0  0  0  0  0  0  0  0  0
   -3.9662  -11.5879    3.9951 H   0  0  0  0  0  0  0  0  0  0  0  0
   -2.1890  -11.4916    3.9708 H   0  0  0  0  0  0  0  0  0  0  0  0
   -2.2965   -9.2435    5.0115 H   0  0  0  0  0  0  0  0  0  0  0  0
   -4.0737   -9.3398    5.0359 H   0  0  0  0  0  0  0  0  0  0  0  0
   -4.0965   -9.5435    2.5647 H   0  0  0  0  0  0  0  0  0  0  0  0
   -2.3193   -9.4473    2.5403 H   0  0  0  0  0  0  0  0  0  0  0  0
   -2.4269   -7.1992    3.5811 H   0  0  0  0  0  0  0  0  0  0  0  0
   -4.2041   -7.2954    3.6054 H   0  0  0  0  0  0  0  0  0  0  0  0
   -4.2269   -7.4992    1.1343 H   0  0  0  0  0  0  0  0  0  0  0  0
   -2.4497   -7.4029    1.1099 H   0  0  0  0  0  0  0  0  0  0  0  0
   -2.5572   -5.1548    2.1506 H   0  0  0  0  0  0  0  0  0  0  0  0
   -4.3344   -5.2511    2.1750 H   0  0  0  0  0  0  0  0  0  0  0  0
   -4.3572   -5.4549   -0.2961 H   0  0  0  0  0  0  0  0  0  0  0  0
   -2.5801   -5.3586   -0.3205 H   0  0  0  0  0  0  0  0  0  0  0  0
   -2.6876   -3.1105    0.7202 H   0  0  0  0  0  0  0  0  0  0  0  0
   -4.4648   -3.2068    0.7446 H   0  0  0  0  0  0  0  0  0  0  0  0
   -4.4876   -3.4105   -1.7266 H   0  0  0  0  0  0  0  0  0  0  0  0
   -2.7104   -3.3143   -1.7509 H   0  0  0  0  0  0  0  0  0  0  0  0
   -5.3352   -0.7070   -2.2149 H   0  0  0  0  0  0  0  0  0  0  0  0
   -5.7163   -1.5085   -0.6719 H   0  0  0  0  0  0  0  0  0  0  0  0
   -4.9110    0.0789   -0.6751 H   0  0  0  0  0  0  0  0  0  0  0  0
   -1.2040    0.6685   -3.4098 H   0  0  0  0  0  0  0  0  0  0  0  0
    0.9051    1.9122   -3.6592 H   0  0  0  0  0  0  0  0  0  0  0  0
    1.8327    3.1609   -1.7515 H   0  0  0  0  0  0  0  0  0  0  0  0
   -1.4566    1.9280    0.6662 H   0  0  0  0  0  0  0  0  0  0  0  0
    1.8297    4.6668   -0.5765 H   0  0  0  0  0  0  0  0  0  0  0  0
    2.4388    4.5357    1.0909 H   0  0  0  0  0  0  0  0  0  0  0  0
    2.7412    3.2233   -0.0729 H   0  0  0  0  0  0  0  0  0  0  0  0
   -1.1197    3.8715    1.3885 H   0  0  0  0  0  0  0  0  0  0  0  0
    0.2224    4.9078    1.9298 H   0  0  0  0  0  0  0  0  0  0  0  0
   -0.3866    5.0389    0.2624 H   0  0  0  0  0  0  0  0  0  0  0  0
    1.7533    1.6499    1.4447 H   0  0  0  0  0  0  0  0  0  0  0  0
    1.4509    2.9623    2.6085 H   0  0  0  0  0  0  0  0  0  0  0  0
    0.1087    1.9260    2.0671 H   0  0  0  0  0  0  0  0  0  0  0  0
   -0.4274  -16.3837    3.9889 H   0  0  0  0  0  0  0  0  0  0  0  0
    1.8169  -17.3753    4.1818 H   0  0  0  0  0  0  0  0  0  0  0  0
    3.0510  -17.2282    6.3066 H   0  0  0  0  0  0  0  0  0  0  0  0
   -0.1936  -15.0815    8.0525 H   0  0  0  0  0  0  0  0  0  0  0  0
    1.2781  -17.7686    9.3179 H   0  0  0  0  0  0  0  0  0  0  0  0
    1.9830  -16.6579   10.5170 H   0  0  0  0  0  0  0  0  0  0  0  0
    0.4701  -16.2256    9.6847 H   0  0  0  0  0  0  0  0  0  0  0  0
    4.0805  -16.2451    7.5805 H   0  0  0  0  0  0  0  0  0  0  0  0
    4.0555  -16.6691    9.3090 H   0  0  0  0  0  0  0  0  0  0  0  0
    3.3506  -17.7798    8.1099 H   0  0  0  0  0  0  0  0  0  0  0  0
    1.4537  -14.1573    8.9711 H   0  0  0  0  0  0  0  0  0  0  0  0
    2.9666  -14.5896    9.8034 H   0  0  0  0  0  0  0  0  0  0  0  0
    2.9915  -14.1656    8.0748 H   0  0  0  0  0  0  0  0  0  0  0  0
  1  2  1  0  0  0  0
  1 41  1  0  0  0  0
  1 42  1  0  0  0  0
  1 43  1  0  0  0  0
  2  3  1  0  0  0  0
  2 28  1  0  0  0  0
  3  4  1  0  0  0  0
  3 44  1  0  0  0  0
  3 45  1  0  0  0  0
  4  5  1  0  0  0  0
  4 46  1  0  0  0  0
  4 47  1  0  0  0  0
  5  6  1  0  0  0  0
  5 48  1  0  0  0  0
  5 49  1  0  0  0  0
  6  7  1  0  0  0  0
  6 50  1  0  0  0  0
  6 51  1  0  0  0  0
  7  8  1  0  0  0  0
  7 52  1  0  0  0  0
  7 53  1  0  0  0  0
  8  9  1  0  0  0  0
  8 54  1  0  0  0  0
  8 55  1  0  0  0  0
  9 10  1  0  0  0  0
  9 56  1  0  0  0  0
  9 57  1  0  0  0  0
 10 11  1  0  0  0  0
 10 58  1  0  0  0  0
 10 59  1  0  0  0  0
 11 12  1  0  0  0  0
 11 60  1  0  0  0  0
 11 61  1  0  0  0  0
 12 13  1  0  0  0  0
 12 62  1  0  0  0  0
 12 63  1  0  0  0  0
 13 14  1  0  0  0  0
 13 15  1  0  0  0  0
 14 64  1  0  0  0  0
 14 65  1  0  0  0  0
 14 66  1  0  0  0  0
 15 16  2  0  0  0  0
 15 17  1  0  0  0  0
 17 18  1  0  0  0  0
 18 23  2  0  0  0  0
 18 19  1  0  0  0  0
 19 20  2  0  0  0  0
 19 67  1  0  0  0  0
 20 21  1  0  0  0  0
 20 68  1  0  0  0  0
 21 22  2  0  0  0  0
 21 69  1  0  0  0  0
 22 23  1  0  0  0  0
 22 24  1  0  0  0  0
 23 70  1  0  0  0  0
 24 25  1  0  0  0  0
 24 26  1  0  0  0  0
 24 27  1  0  0  0  0
 25 71  1  0  0  0  0
 25 72  1  0  0  0  0
 25 73  1  0  0  0  0
 26 74  1  0  0  0  0
 26 75  1  0  0  0  0
 26 76  1  0  0  0  0
 27 77  1  0  0  0  0
 27 78  1  0  0  0  0
 27 79  1  0  0  0  0
 28 29  2  0  0  0  0
 28 30  1  0  0  0  0
 30 31  1  0  0  0  0
 31 36  2  0  0  0  0
 31 32  1  0  0  0  0
 32 33  2  0  0  0  0
 32 80  1  0  0  0  0
 33 34  1  0  0  0  0
 33 81  1  0  0  0  0
 34 35  2  0  0  0  0
 34 82  1  0  0  0  0
 35 36  1  0  0  0  0
 35 37  1  0  0  0  0
 36 83  1  0  0  0  0
 37 38  1  0  0  0  0
 37 39  1  0  0  0  0
 37 40  1  0  0  0  0
 38 84  1  0  0  0  0
 38 85  1  0  0  0  0
 38 86  1  0  0  0  0
 39 87  1  0  0  0  0
 39 88  1  0  0  0  0
 39 89  1  0  0  0  0
 40 90  1  0  0  0  0
 40 91  1  0  0  0  0
 40 92  1  0  0  0  0
M  CHG  2  24   1  37   1
M  END
$$$$
