ZINC13897226
 OpenBabel08292219463D

 59 61  0  0  1  0  0  0  0  0999 V2000
   -3.7969    2.9532   -0.4862 C   0  0  0  0  0  0  0  0  0  0  0  0
   -2.9165    1.7278   -0.2328 C   0  0  0  0  0  0  0  0  0  0  0  0
   -3.6855    0.4603   -0.6108 C   0  0  0  0  0  0  0  0  0  0  0  0
   -2.8050   -0.7650   -0.3574 C   0  0  0  0  0  0  0  0  0  0  0  0
   -3.5625   -2.0135   -0.7298 C   0  0  0  0  0  0  0  0  0  0  0  0
   -4.7244   -1.9392   -1.0694 O   0  0  0  0  0  0  0  0  0  0  0  0
   -2.9487   -3.2126   -0.6853 N   0  0  0  0  0  0  0  0  0  0  0  0
   -3.6474   -4.4110   -1.1565 C   0  0  0  0  0  0  0  0  0  0  0  0
   -3.5174   -4.5120   -2.6544 C   0  0  0  0  0  0  0  0  0  0  0  0
   -3.9547   -3.4724   -3.4555 C   0  0  0  0  0  0  0  0  0  0  0  0
   -3.8383   -3.5592   -4.8278 C   0  0  0  0  0  0  0  0  0  0  0  0
   -3.2787   -4.6974   -5.4066 C   0  0  0  0  0  0  0  0  0  0  0  0
   -2.8397   -5.7419   -4.5941 C   0  0  0  0  0  0  0  0  0  0  0  0
   -2.9561   -5.6414   -3.2227 C   0  0  0  0  0  0  0  0  0  0  0  0
   -3.1513   -4.7969   -6.8799 C   0  0  0  0  0  0  0  0  0  0  0  0
   -4.2453   -4.5256   -7.6972 C   0  0  0  0  0  0  0  0  0  0  0  0
   -4.1224   -4.6194   -9.0687 C   0  0  0  0  0  0  0  0  0  0  0  0
   -2.9148   -4.9828   -9.6411 C   0  0  0  0  0  0  0  0  0  0  0  0
   -1.8199   -5.2554   -8.8469 C   0  0  0  0  0  0  0  0  0  0  0  0
   -1.9243   -5.1600   -7.4602 C   0  0  0  0  0  0  0  0  0  0  0  0
   -0.7526   -5.4455   -6.6048 C   0  0  0  0  0  0  0  0  0  0  0  0
   -0.7084   -5.4059   -5.2715 N   0  0  0  0  0  2  0  0  0  0  0  0
    0.4903   -5.7181   -4.9143 N   0  0  0  0  0  0  0  0  0  0  0  0
    1.1990   -5.9514   -5.9629 N   0  0  0  0  0  0  0  0  0  0  0  0
    0.4676   -5.7993   -7.0136 N   0  0  0  0  0  0  0  0  0  0  0  0
   -1.5829   -3.3175   -0.1660 C   0  0  1  0  0  0  0  0  0  0  0  0
   -1.1746   -2.3186   -0.0130 H   0  0  0  0  0  0  0  0  0  0  0  0
   -1.6002   -4.0708    1.1657 C   0  0  0  0  0  0  0  0  0  0  0  0
   -2.4544   -3.3019    2.1755 C   0  0  0  0  0  0  0  0  0  0  0  0
   -2.1918   -5.4659    0.9548 C   0  0  0  0  0  0  0  0  0  0  0  0
   -0.7255   -4.0647   -1.1547 C   0  0  0  0  0  0  0  0  0  0  0  0
   -1.0884   -4.1776   -2.3132 O   0  0  0  0  0  0  0  0  0  0  0  0
    0.3310   -4.5564   -0.7962 O   0  0  0  0  0  1  0  0  0  0  0  0
   -3.2490    3.8562   -0.2168 H   0  0  0  0  0  0  0  0  0  0  0  0
   -4.0682    2.9938   -1.5411 H   0  0  0  0  0  0  0  0  0  0  0  0
   -4.7008    2.8825    0.1190 H   0  0  0  0  0  0  0  0  0  0  0  0
   -2.0126    1.7985   -0.8379 H   0  0  0  0  0  0  0  0  0  0  0  0
   -2.6452    1.6872    0.8222 H   0  0  0  0  0  0  0  0  0  0  0  0
   -4.5893    0.3897   -0.0057 H   0  0  0  0  0  0  0  0  0  0  0  0
   -3.9567    0.5009   -1.6657 H   0  0  0  0  0  0  0  0  0  0  0  0
   -1.9012   -0.6944   -0.9625 H   0  0  0  0  0  0  0  0  0  0  0  0
   -2.5338   -0.8057    0.6975 H   0  0  0  0  0  0  0  0  0  0  0  0
   -3.2070   -5.2939   -0.6932 H   0  0  0  0  0  0  0  0  0  0  0  0
   -4.7015   -4.3466   -0.8867 H   0  0  0  0  0  0  0  0  0  0  0  0
   -4.3884   -2.5913   -3.0061 H   0  0  0  0  0  0  0  0  0  0  0  0
   -4.1804   -2.7471   -5.4523 H   0  0  0  0  0  0  0  0  0  0  0  0
   -2.4053   -6.6260   -5.0369 H   0  0  0  0  0  0  0  0  0  0  0  0
   -2.6124   -6.4480   -2.5921 H   0  0  0  0  0  0  0  0  0  0  0  0
   -5.1902   -4.2420   -7.2579 H   0  0  0  0  0  0  0  0  0  0  0  0
   -4.9733   -4.4085   -9.6995 H   0  0  0  0  0  0  0  0  0  0  0  0
   -2.8296   -5.0535  -10.7154 H   0  0  0  0  0  0  0  0  0  0  0  0
   -0.8812   -5.5385   -9.2997 H   0  0  0  0  0  0  0  0  0  0  0  0
   -0.5823   -4.1613    1.5451 H   0  0  0  0  0  0  0  0  0  0  0  0
   -3.4723   -3.2114    1.7961 H   0  0  0  0  0  0  0  0  0  0  0  0
   -2.4667   -3.8385    3.1242 H   0  0  0  0  0  0  0  0  0  0  0  0
   -2.0330   -2.3080    2.3258 H   0  0  0  0  0  0  0  0  0  0  0  0
   -1.9698   -6.0894    1.8209 H   0  0  0  0  0  0  0  0  0  0  0  0
   -3.2718   -5.3876    0.8307 H   0  0  0  0  0  0  0  0  0  0  0  0
   -1.7551   -5.9147    0.0626 H   0  0  0  0  0  0  0  0  0  0  0  0
  1  2  1  0  0  0  0
  1 34  1  0  0  0  0
  1 35  1  0  0  0  0
  1 36  1  0  0  0  0
  2  3  1  0  0  0  0
  2 37  1  0  0  0  0
  2 38  1  0  0  0  0
  3  4  1  0  0  0  0
  3 39  1  0  0  0  0
  3 40  1  0  0  0  0
  4  5  1  0  0  0  0
  4 41  1  0  0  0  0
  4 42  1  0  0  0  0
  5  6  2  0  0  0  0
  5  7  1  0  0  0  0
  7  8  1  0  0  0  0
  7 26  1  0  0  0  0
  8  9  1  0  0  0  0
  8 43  1  0  0  0  0
  8 44  1  0  0  0  0
  9 14  2  0  0  0  0
  9 10  1  0  0  0  0
 10 11  2  0  0  0  0
 10 45  1  0  0  0  0
 11 12  1  0  0  0  0
 11 46  1  0  0  0  0
 12 13  2  0  0  0  0
 12 15  1  0  0  0  0
 13 14  1  0  0  0  0
 13 47  1  0  0  0  0
 14 48  1  0  0  0  0
 15 20  2  0  0  0  0
 15 16  1  0  0  0  0
 16 17  2  0  0  0  0
 16 49  1  0  0  0  0
 17 18  1  0  0  0  0
 17 50  1  0  0  0  0
 18 19  2  0  0  0  0
 18 51  1  0  0  0  0
 19 20  1  0  0  0  0
 19 52  1  0  0  0  0
 20 21  1  0  0  0  0
 21 25  2  0  0  0  0
 21 22  1  0  0  0  0
 22 23  1  0  0  0  0
 23 24  2  0  0  0  0
 24 25  1  0  0  0  0
 26 27  1  1  0  0  0
 26 28  1  0  0  0  0
 26 31  1  0  0  0  0
 28 29  1  0  0  0  0
 28 30  1  0  0  0  0
 28 53  1  0  0  0  0
 29 54  1  0  0  0  0
 29 55  1  0  0  0  0
 29 56  1  0  0  0  0
 30 57  1  0  0  0  0
 30 58  1  0  0  0  0
 30 59  1  0  0  0  0
 31 32  2  0  0  0  0
 31 33  1  0  0  0  0
M  END
$$$$
