ZINC00897002
 OpenBabel08292219463D

 47 48  0  0  1  0  0  0  0  0999 V2000
    4.1313    2.1043   -2.5010 C   0  0  0  0  0  0  0  0  0  0  0  0
    3.4148    1.0211   -1.6922 C   0  0  0  0  0  0  0  0  0  0  0  0
    2.9795   -0.1093   -2.6269 C   0  0  0  0  0  0  0  0  0  0  0  0
    2.2916   -1.1493   -1.8503 N   0  3  2  0  0  0  0  0  0  0  0  0
    3.2408   -1.7708   -0.9191 C   0  0  0  0  0  0  0  0  0  0  0  0
    2.5111   -2.7984   -0.0513 C   0  0  0  0  0  0  0  0  0  0  0  0
    1.8976   -3.8748   -0.9513 C   0  0  0  0  0  0  0  0  0  0  0  0
    0.9661   -3.2070   -1.9670 C   0  0  0  0  0  0  0  0  0  0  0  0
    1.7530   -2.1642   -2.7638 C   0  0  1  0  0  0  0  0  0  0  0  0
    2.5742   -2.6524   -3.2886 H   0  0  0  0  0  0  0  0  0  0  0  0
    0.8403   -1.5043   -3.7651 C   0  0  0  0  0  0  0  0  0  0  0  0
    0.2375   -0.4959   -3.4638 O   0  0  0  0  0  0  0  0  0  0  0  0
    0.6939   -2.0347   -4.9954 N   0  0  0  0  0  0  0  0  0  0  0  0
   -0.0621   -1.3621   -5.9618 C   0  0  0  0  0  0  0  0  0  0  0  0
    0.5084   -1.0281   -7.1831 C   0  0  0  0  0  0  0  0  0  0  0  0
   -0.2404   -0.3642   -8.1349 C   0  0  0  0  0  0  0  0  0  0  0  0
   -1.5569   -0.0319   -7.8728 C   0  0  0  0  0  0  0  0  0  0  0  0
   -2.1278   -0.3626   -6.6575 C   0  0  0  0  0  0  0  0  0  0  0  0
   -1.3861   -1.0321   -5.7039 C   0  0  0  0  0  0  0  0  0  0  0  0
   -2.0112   -1.3984   -4.3825 C   0  0  0  0  0  0  0  0  0  0  0  0
    1.9432   -1.3894   -7.4694 C   0  0  0  0  0  0  0  0  0  0  0  0
    5.0084    1.6754   -2.9857 H   0  0  0  0  0  0  0  0  0  0  0  0
    3.4545    2.4995   -3.2586 H   0  0  0  0  0  0  0  0  0  0  0  0
    4.4414    2.9096   -1.8352 H   0  0  0  0  0  0  0  0  0  0  0  0
    4.0916    0.6258   -0.9347 H   0  0  0  0  0  0  0  0  0  0  0  0
    2.5377    1.4499   -1.2076 H   0  0  0  0  0  0  0  0  0  0  0  0
    2.3027    0.2859   -3.3844 H   0  0  0  0  0  0  0  0  0  0  0  0
    3.8566   -0.5381   -3.1115 H   0  0  0  0  0  0  0  0  0  0  0  0
    4.0302   -2.2674   -1.4832 H   0  0  0  0  0  0  0  0  0  0  0  0
    3.6789   -1.0031   -0.2813 H   0  0  0  0  0  0  0  0  0  0  0  0
    3.2179   -3.2600    0.6382 H   0  0  0  0  0  0  0  0  0  0  0  0
    1.7215   -2.3028    0.5135 H   0  0  0  0  0  0  0  0  0  0  0  0
    2.6909   -4.4052   -1.4780 H   0  0  0  0  0  0  0  0  0  0  0  0
    1.3290   -4.5781   -0.3429 H   0  0  0  0  0  0  0  0  0  0  0  0
    0.5686   -3.9606   -2.6468 H   0  0  0  0  0  0  0  0  0  0  0  0
    0.1445   -2.7198   -1.4420 H   0  0  0  0  0  0  0  0  0  0  0  0
    1.1126   -2.8828   -5.2109 H   0  0  0  0  0  0  0  0  0  0  0  0
    0.2027   -0.1039   -9.0848 H   0  0  0  0  0  0  0  0  0  0  0  0
   -2.1404    0.4873   -8.6187 H   0  0  0  0  0  0  0  0  0  0  0  0
   -3.1561   -0.1014   -6.4557 H   0  0  0  0  0  0  0  0  0  0  0  0
   -1.9799   -0.5376   -3.7146 H   0  0  0  0  0  0  0  0  0  0  0  0
   -3.0472   -1.6977   -4.5411 H   0  0  0  0  0  0  0  0  0  0  0  0
   -1.4585   -2.2250   -3.9359 H   0  0  0  0  0  0  0  0  0  0  0  0
    1.9794   -2.3415   -7.9988 H   0  0  0  0  0  0  0  0  0  0  0  0
    2.3972   -0.6135   -8.0858 H   0  0  0  0  0  0  0  0  0  0  0  0
    2.4907   -1.4745   -6.5308 H   0  0  0  0  0  0  0  0  0  0  0  0
    1.5351   -0.7328   -1.3283 H   0  0  0  0  0  0  0  0  0  0  0  0
  1  2  1  0  0  0  0
  1 22  1  0  0  0  0
  1 23  1  0  0  0  0
  1 24  1  0  0  0  0
  2  3  1  0  0  0  0
  2 25  1  0  0  0  0
  2 26  1  0  0  0  0
  3  4  1  0  0  0  0
  3 27  1  0  0  0  0
  3 28  1  0  0  0  0
  4  9  1  0  0  0  0
  4  5  1  0  0  0  0
  4 47  1  1  0  0  0
  5  6  1  0  0  0  0
  5 29  1  0  0  0  0
  5 30  1  0  0  0  0
  6  7  1  0  0  0  0
  6 31  1  0  0  0  0
  6 32  1  0  0  0  0
  7  8  1  0  0  0  0
  7 33  1  0  0  0  0
  7 34  1  0  0  0  0
  8  9  1  0  0  0  0
  8 35  1  0  0  0  0
  8 36  1  0  0  0  0
  9 10  1  6  0  0  0
  9 11  1  0  0  0  0
 11 12  2  0  0  0  0
 11 13  1  0  0  0  0
 13 14  1  0  0  0  0
 13 37  1  0  0  0  0
 14 19  2  0  0  0  0
 14 15  1  0  0  0  0
 15 16  2  0  0  0  0
 15 21  1  0  0  0  0
 16 17  1  0  0  0  0
 16 38  1  0  0  0  0
 17 18  2  0  0  0  0
 17 39  1  0  0  0  0
 18 19  1  0  0  0  0
 18 40  1  0  0  0  0
 19 20  1  0  0  0  0
 20 41  1  0  0  0  0
 20 42  1  0  0  0  0
 20 43  1  0  0  0  0
 21 44  1  0  0  0  0
 21 45  1  0  0  0  0
 21 46  1  0  0  0  0
M  CHG  1   4   1
M  END
$$$$
