ZINC04214700
 OpenBabel08292219463D

 59 63  0  0  1  0  0  0  0  0999 V2000
   -0.0184    1.5028    0.0103 C   0  0  0  0  0  0  0  0  0  0  0  0
    0.0021   -0.0041    0.0020 C   0  0  0  0  0  0  0  0  0  0  0  0
   -1.1658   -0.7051    0.0037 C   0  0  0  0  0  0  0  0  0  0  0  0
   -1.0976   -2.1102    0.0026 C   0  0  0  0  0  0  0  0  0  0  0  0
   -2.1195   -2.7763   -0.0037 O   0  0  0  0  0  0  0  0  0  0  0  0
    0.1170   -2.7181    0.0083 N   0  0  0  0  0  0  0  0  0  0  0  0
    1.2324   -1.9722   -0.0125 C   0  0  0  0  0  0  0  0  0  0  0  0
    1.1610   -0.6576   -0.0126 N   0  0  0  0  0  0  0  0  0  0  0  0
    2.6152   -2.5746   -0.0542 C   0  0  2  0  0  0  0  0  0  0  0  0
    3.0059   -2.5077   -1.0696 H   0  0  0  0  0  0  0  0  0  0  0  0
    2.5757   -4.0399    0.3747 C   0  0  0  0  0  0  0  0  0  0  0  0
    1.4654   -4.7382   -0.4208 C   0  0  0  0  0  0  0  0  0  0  0  0
    0.1227   -4.1811    0.0440 C   0  0  0  0  0  0  0  0  0  0  0  0
    3.4723   -1.8486    0.8292 O   0  0  0  0  0  0  0  0  0  0  0  0
   -2.4949    0.0052    0.0071 C   0  0  0  0  0  0  0  0  0  0  0  0
   -3.0069    0.1361   -1.4287 C   0  0  0  0  0  0  0  0  0  0  0  0
   -4.3025    0.8286   -1.4254 N   0  3  1  0  0  0  0  0  0  0  0  0
   -4.1200    2.2026   -0.9424 C   0  0  0  0  0  0  0  0  0  0  0  0
   -5.4780    2.9029   -0.8601 C   0  0  0  0  0  0  0  0  0  0  0  0
   -6.1175    2.9299   -2.2513 C   0  0  1  0  0  0  0  0  0  0  0  0
   -6.2348    1.4960   -2.7762 C   0  0  0  0  0  0  0  0  0  0  0  0
   -4.8488    0.8478   -2.7876 C   0  0  0  0  0  0  0  0  0  0  0  0
   -7.4890    3.5482   -2.1635 C   0  0  0  0  0  0  0  0  0  0  0  0
   -7.9454    4.7495   -2.8676 C   0  0  0  0  0  0  0  0  0  0  0  0
   -7.3363    5.6350   -3.7605 C   0  0  0  0  0  0  0  0  0  0  0  0
   -8.0439    6.6917   -4.2581 C   0  0  0  0  0  0  0  0  0  0  0  0
   -9.3671    6.8941   -3.8825 C   0  0  0  0  0  0  0  0  0  0  0  0
   -9.9863    6.0302   -3.0015 C   0  0  0  0  0  0  0  0  0  0  0  0
   -9.2824    4.9496   -2.4854 C   0  0  0  0  0  0  0  0  0  0  0  0
   -9.6025    3.9587   -1.6289 O   0  0  0  0  0  0  0  0  0  0  0  0
   -8.4845    3.1114   -1.4549 N   0  0  0  0  0  0  0  0  0  0  0  0
  -10.0525    7.9450   -4.3834 F   0  0  0  0  0  0  0  0  0  0  0  0
    1.0042    1.8801    0.0026 H   0  0  0  0  0  0  0  0  0  0  0  0
   -0.5455    1.8639   -0.8728 H   0  0  0  0  0  0  0  0  0  0  0  0
   -0.5286    1.8543    0.9071 H   0  0  0  0  0  0  0  0  0  0  0  0
    3.5346   -4.5121    0.1611 H   0  0  0  0  0  0  0  0  0  0  0  0
    2.3615   -4.1056    1.4415 H   0  0  0  0  0  0  0  0  0  0  0  0
    1.5965   -4.5420   -1.4849 H   0  0  0  0  0  0  0  0  0  0  0  0
    1.5014   -5.8120   -0.2372 H   0  0  0  0  0  0  0  0  0  0  0  0
   -0.0688   -4.5145    1.0639 H   0  0  0  0  0  0  0  0  0  0  0  0
   -0.6654   -4.5576   -0.6081 H   0  0  0  0  0  0  0  0  0  0  0  0
    3.5605   -0.9111    0.6094 H   0  0  0  0  0  0  0  0  0  0  0  0
   -3.2109   -0.5666    0.5975 H   0  0  0  0  0  0  0  0  0  0  0  0
   -2.3754    0.9974    0.4422 H   0  0  0  0  0  0  0  0  0  0  0  0
   -2.2909    0.7079   -2.0190 H   0  0  0  0  0  0  0  0  0  0  0  0
   -3.1264   -0.8561   -1.8638 H   0  0  0  0  0  0  0  0  0  0  0  0
   -3.6618    2.1819    0.0464 H   0  0  0  0  0  0  0  0  0  0  0  0
   -3.4725    2.7461   -1.6306 H   0  0  0  0  0  0  0  0  0  0  0  0
   -6.1262    2.3603   -0.1719 H   0  0  0  0  0  0  0  0  0  0  0  0
   -5.3401    3.9235   -0.5030 H   0  0  0  0  0  0  0  0  0  0  0  0
   -5.4949    3.5158   -2.9274 H   0  0  0  0  0  0  0  0  0  0  0  0
   -6.8988    0.9242   -2.1279 H   0  0  0  0  0  0  0  0  0  0  0  0
   -6.6380    1.5110   -3.7888 H   0  0  0  0  0  0  0  0  0  0  0  0
   -4.1858    1.4202   -3.4364 H   0  0  0  0  0  0  0  0  0  0  0  0
   -4.9287   -0.1731   -3.1610 H   0  0  0  0  0  0  0  0  0  0  0  0
   -6.3086    5.4843   -4.0561 H   0  0  0  0  0  0  0  0  0  0  0  0
   -7.5720    7.3754   -4.9482 H   0  0  0  0  0  0  0  0  0  0  0  0
  -11.0146    6.1938   -2.7147 H   0  0  0  0  0  0  0  0  0  0  0  0
   -4.9413    0.3417   -0.8147 H   0  0  0  0  0  0  0  0  0  0  0  0
  1  2  1  0  0  0  0
  1 33  1  0  0  0  0
  1 34  1  0  0  0  0
  1 35  1  0  0  0  0
  2  8  1  0  0  0  0
  2  3  2  0  0  0  0
  3  4  1  0  0  0  0
  3 15  1  0  0  0  0
  4  5  2  0  0  0  0
  4  6  1  0  0  0  0
  6 13  1  0  0  0  0
  6  7  1  0  0  0  0
  7  8  2  0  0  0  0
  7  9  1  0  0  0  0
  9 10  1  6  0  0  0
  9 11  1  0  0  0  0
  9 14  1  0  0  0  0
 11 12  1  0  0  0  0
 11 36  1  0  0  0  0
 11 37  1  0  0  0  0
 12 13  1  0  0  0  0
 12 38  1  0  0  0  0
 12 39  1  0  0  0  0
 13 40  1  0  0  0  0
 13 41  1  0  0  0  0
 14 42  1  0  0  0  0
 15 16  1  0  0  0  0
 15 43  1  0  0  0  0
 15 44  1  0  0  0  0
 16 17  1  0  0  0  0
 16 45  1  0  0  0  0
 16 46  1  0  0  0  0
 17 22  1  0  0  0  0
 17 18  1  0  0  0  0
 17 59  1  1  0  0  0
 18 19  1  0  0  0  0
 18 47  1  0  0  0  0
 18 48  1  0  0  0  0
 19 20  1  0  0  0  0
 19 49  1  0  0  0  0
 19 50  1  0  0  0  0
 20 21  1  0  0  0  0
 20 23  1  0  0  0  0
 20 51  1  6  0  0  0
 21 22  1  0  0  0  0
 21 52  1  0  0  0  0
 21 53  1  0  0  0  0
 22 54  1  0  0  0  0
 22 55  1  0  0  0  0
 23 31  2  0  0  0  0
 23 24  1  0  0  0  0
 24 29  2  0  0  0  0
 24 25  1  0  0  0  0
 25 26  2  0  0  0  0
 25 56  1  0  0  0  0
 26 27  1  0  0  0  0
 26 57  1  0  0  0  0
 27 28  2  0  0  0  0
 27 32  1  0  0  0  0
 28 29  1  0  0  0  0
 28 58  1  0  0  0  0
 29 30  1  0  0  0  0
 30 31  1  0  0  0  0
M  CHG  1  17   1
M  END
$$$$
