ZINC00896868
 OpenBabel08292219463D

 29 30  0  0  1  0  0  0  0  0999 V2000
   -0.0187    1.5258    0.0104 C   0  0  0  0  0  0  0  0  0  0  0  0
    0.0021   -0.0041    0.0020 C   0  0  1  0  0  0  0  0  0  0  0  0
   -1.0204   -0.3816    0.0098 H   0  0  0  0  0  0  0  0  0  0  0  0
    0.7193   -0.4981   -1.2568 C   0  0  2  0  0  0  0  0  0  0  0  0
    0.6992   -1.5876   -1.2833 H   0  0  0  0  0  0  0  0  0  0  0  0
    2.0761   -0.0459   -1.2346 O   0  0  0  0  0  0  0  0  0  0  0  0
    2.8053   -0.4753   -0.0814 C   0  0  0  0  0  0  0  0  0  0  0  0
    2.0919    0.0188    1.1796 C   0  0  0  0  0  0  0  0  0  0  0  0
    0.7135   -0.4912    1.1919 N   0  3  0  0  0  0  0  0  0  0  0  0
    0.0258    0.0480   -2.4782 C   0  0  0  0  0  0  0  0  0  0  0  0
    0.3509    1.3046   -2.9538 C   0  0  0  0  0  0  0  0  0  0  0  0
   -0.2852    1.8055   -4.0742 C   0  0  0  0  0  0  0  0  0  0  0  0
   -1.2461    1.0496   -4.7193 C   0  0  0  0  0  0  0  0  0  0  0  0
   -1.5706   -0.2074   -4.2443 C   0  0  0  0  0  0  0  0  0  0  0  0
   -0.9314   -0.7100   -3.1264 C   0  0  0  0  0  0  0  0  0  0  0  0
    1.0039    1.9031    0.0027 H   0  0  0  0  0  0  0  0  0  0  0  0
   -0.5459    1.8868   -0.8726 H   0  0  0  0  0  0  0  0  0  0  0  0
   -0.5289    1.8773    0.9072 H   0  0  0  0  0  0  0  0  0  0  0  0
    2.8565   -1.5640   -0.0677 H   0  0  0  0  0  0  0  0  0  0  0  0
    3.8138   -0.0632   -0.1142 H   0  0  0  0  0  0  0  0  0  0  0  0
    2.6209   -0.3421    2.0616 H   0  0  0  0  0  0  0  0  0  0  0  0
    2.0763    1.1087    1.1851 H   0  0  0  0  0  0  0  0  0  0  0  0
    0.2415   -0.1665    2.0225 H   0  0  0  0  0  0  0  0  0  0  0  0
    1.1016    1.8951   -2.4497 H   0  0  0  0  0  0  0  0  0  0  0  0
   -0.0318    2.7875   -4.4453 H   0  0  0  0  0  0  0  0  0  0  0  0
   -1.7437    1.4412   -5.5942 H   0  0  0  0  0  0  0  0  0  0  0  0
   -2.3216   -0.7978   -4.7481 H   0  0  0  0  0  0  0  0  0  0  0  0
   -1.1822   -1.6936   -2.7575 H   0  0  0  0  0  0  0  0  0  0  0  0
    0.7280   -1.5001    1.1856 H   0  0  0  0  0  0  0  0  0  0  0  0
  1  2  1  0  0  0  0
  1 16  1  0  0  0  0
  1 17  1  0  0  0  0
  1 18  1  0  0  0  0
  2  3  1  1  0  0  0
  2  9  1  0  0  0  0
  2  4  1  0  0  0  0
  4  5  1  6  0  0  0
  4  6  1  0  0  0  0
  4 10  1  0  0  0  0
  6  7  1  0  0  0  0
  7  8  1  0  0  0  0
  7 19  1  0  0  0  0
  7 20  1  0  0  0  0
  8  9  1  0  0  0  0
  8 21  1  0  0  0  0
  8 22  1  0  0  0  0
  9 23  1  0  0  0  0
  9 29  1  0  0  0  0
 10 15  2  0  0  0  0
 10 11  1  0  0  0  0
 11 12  2  0  0  0  0
 11 24  1  0  0  0  0
 12 13  1  0  0  0  0
 12 25  1  0  0  0  0
 13 14  2  0  0  0  0
 13 26  1  0  0  0  0
 14 15  1  0  0  0  0
 14 27  1  0  0  0  0
 15 28  1  0  0  0  0
M  CHG  1   9   1
M  END
$$$$
