ZINC04228257
 OpenBabel08292219463D

 32 33  0  0  1  0  0  0  0  0999 V2000
   -0.0187    1.5258    0.0104 C   0  0  0  0  0  0  0  0  0  0  0  0
    0.0021   -0.0041    0.0020 C   0  0  1  0  0  0  0  0  0  0  0  0
    0.5123   -0.3556   -0.8948 H   0  0  0  0  0  0  0  0  0  0  0  0
    0.7421   -0.5109    1.2415 C   0  0  2  0  0  0  0  0  0  0  0  0
    1.7879   -0.2080    1.1895 H   0  0  0  0  0  0  0  0  0  0  0  0
    0.6554   -2.0374    1.2986 C   0  0  2  0  0  0  0  0  0  0  0  0
   -0.3888   -2.3457    1.3508 H   0  0  0  0  0  0  0  0  0  0  0  0
    1.4124   -2.5552    2.5310 C   0  0  0  0  0  0  0  0  0  0  0  0
    2.8347   -2.2195    2.3708 N   0  0  0  0  0  0  0  0  0  0  0  0
    3.4473   -2.4486    1.1549 C   0  0  0  0  0  0  0  0  0  0  0  0
    2.6977   -2.6418    0.0302 C   0  0  0  0  0  0  0  0  0  0  0  0
    3.3508   -2.8685   -1.1982 C   0  0  0  0  0  0  0  0  0  0  0  0
    4.6933   -2.8922   -1.2363 N   0  0  0  0  0  0  0  0  0  0  0  0
    5.4061   -2.7075   -0.1461 C   0  0  0  0  0  0  0  0  0  0  0  0
    4.8145   -2.4850    1.0591 N   0  0  0  0  0  0  0  0  0  0  0  0
    6.7748   -2.7403   -0.2257 N   0  0  0  0  0  0  0  0  0  0  0  0
    2.7010   -3.0424   -2.2200 O   0  0  0  0  0  0  0  0  0  0  0  0
    1.2866   -2.6171    0.1020 N   0  0  0  0  0  0  0  0  0  0  0  0
    0.1431    0.0444    2.4141 O   0  0  0  0  0  0  0  0  0  0  0  0
   -1.3386   -0.4987    0.0122 O   0  0  0  0  0  0  0  0  0  0  0  0
    1.0039    1.9031    0.0027 H   0  0  0  0  0  0  0  0  0  0  0  0
   -0.5459    1.8868   -0.8726 H   0  0  0  0  0  0  0  0  0  0  0  0
   -0.5289    1.8773    0.9072 H   0  0  0  0  0  0  0  0  0  0  0  0
    1.0211   -2.0788    3.4299 H   0  0  0  0  0  0  0  0  0  0  0  0
    1.2959   -3.6363    2.6067 H   0  0  0  0  0  0  0  0  0  0  0  0
    3.3364   -1.8421    3.1102 H   0  0  0  0  0  0  0  0  0  0  0  0
    7.2073   -2.8984   -1.0795 H   0  0  0  0  0  0  0  0  0  0  0  0
    7.3104   -2.6054    0.5716 H   0  0  0  0  0  0  0  0  0  0  0  0
    0.7460   -2.9743   -0.6199 H   0  0  0  0  0  0  0  0  0  0  0  0
   -0.7898   -0.1845    2.5253 H   0  0  0  0  0  0  0  0  0  0  0  0
   -1.8677   -0.2163   -0.7464 H   0  0  0  0  0  0  0  0  0  0  0  0
    5.3599   -2.3519    1.8501 H   0  0  0  0  0  0  0  0  0  0  0  0
  1  2  1  0  0  0  0
  1 21  1  0  0  0  0
  1 22  1  0  0  0  0
  1 23  1  0  0  0  0
  2  3  1  6  0  0  0
  2  4  1  0  0  0  0
  2 20  1  0  0  0  0
  4  5  1  6  0  0  0
  4  6  1  0  0  0  0
  4 19  1  0  0  0  0
  6  7  1  1  0  0  0
  6 18  1  0  0  0  0
  6  8  1  0  0  0  0
  8  9  1  0  0  0  0
  8 24  1  0  0  0  0
  8 25  1  0  0  0  0
  9 10  1  0  0  0  0
  9 26  1  0  0  0  0
 10 15  1  0  0  0  0
 10 11  2  0  0  0  0
 11 12  1  0  0  0  0
 11 18  1  0  0  0  0
 12 13  1  0  0  0  0
 12 17  2  0  0  0  0
 13 14  2  0  0  0  0
 14 15  1  0  0  0  0
 14 16  1  0  0  0  0
 15 32  1  0  0  0  0
 16 27  1  0  0  0  0
 16 28  1  0  0  0  0
 18 29  1  0  0  0  0
 19 30  1  0  0  0  0
 20 31  1  0  0  0  0
M  END
$$$$
