ZINC15668997
 OpenBabel08292219463D

 55 58  0  0  1  0  0  0  0  0999 V2000
   -0.0167    1.3804    0.0096 C   0  0  0  0  0  0  0  0  0  0  0  0
    1.1697    2.0850    0.0021 C   0  0  0  0  0  0  0  0  0  0  0  0
    2.3857    1.4097   -0.0144 C   0  0  0  0  0  0  0  0  0  0  0  0
    2.4025    0.0261   -0.0255 C   0  0  0  0  0  0  0  0  0  0  0  0
    1.2099   -0.6778   -0.0153 C   0  0  0  0  0  0  0  0  0  0  0  0
    0.0021   -0.0041    0.0020 C   0  0  0  0  0  0  0  0  0  0  0  0
   -1.1582   -0.6961    0.0119 F   0  0  0  0  0  0  0  0  0  0  0  0
    3.6987   -0.7436   -0.0549 C   0  0  0  0  0  0  0  0  0  0  0  0
    4.8503    0.1688    0.3741 C   0  0  0  0  0  0  0  0  0  0  0  0
    4.7396    1.4845   -0.4068 C   0  0  1  0  0  0  0  0  0  0  0  0
    4.7145    1.2756   -1.4763 H   0  0  0  0  0  0  0  0  0  0  0  0
    3.5321    2.1397   -0.0162 O   0  0  0  0  0  0  0  0  0  0  0  0
    5.9391    2.3778   -0.0843 C   0  0  2  0  0  0  0  0  0  0  0  0
    5.9557    2.5921    0.9843 H   0  0  0  0  0  0  0  0  0  0  0  0
    5.8238    3.6883   -0.8656 C   0  0  0  0  0  0  0  0  0  0  0  0
    6.9755    4.5459   -0.5559 N   0  3  0  0  0  0  0  0  0  0  0  0
    6.8648    5.8041   -1.3060 C   0  0  0  0  0  0  0  0  0  0  0  0
    8.0644    6.6974   -0.9835 C   0  0  1  0  0  0  0  0  0  0  0  0
    8.9846    6.1859   -1.2658 H   0  0  0  0  0  0  0  0  0  0  0  0
    7.9490    8.0079   -1.7647 C   0  0  2  0  0  0  0  0  0  0  0  0
    8.0214    7.8057   -2.8334 H   0  0  0  0  0  0  0  0  0  0  0  0
    9.0735    8.9619   -1.3422 C   0  0  0  0  0  0  0  0  0  0  0  0
    8.9959   10.2145   -2.2185 C   0  0  0  0  0  0  0  0  0  0  0  0
    7.5756   10.7191   -2.2583 C   0  0  0  0  0  0  0  0  0  0  0  0
    7.3429   12.0213   -2.6685 C   0  0  0  0  0  0  0  0  0  0  0  0
    6.0525   12.5164   -2.7203 C   0  0  0  0  0  0  0  0  0  0  0  0
    4.9874   11.7078   -2.3617 C   0  0  0  0  0  0  0  0  0  0  0  0
    5.2156   10.4102   -1.9513 C   0  0  0  0  0  0  0  0  0  0  0  0
    6.5127    9.9105   -1.8963 C   0  0  0  0  0  0  0  0  0  0  0  0
    6.6965    8.6309   -1.4768 O   0  0  0  0  0  0  0  0  0  0  0  0
    5.8316   13.7879   -3.1200 F   0  0  0  0  0  0  0  0  0  0  0  0
    8.0861    6.9784    0.4174 O   0  0  0  0  0  0  0  0  0  0  0  0
    7.1456    1.7072   -0.4544 O   0  0  0  0  0  0  0  0  0  0  0  0
   -0.9588    1.9081    0.0260 H   0  0  0  0  0  0  0  0  0  0  0  0
    1.1541    3.1649    0.0087 H   0  0  0  0  0  0  0  0  0  0  0  0
    1.2230   -1.7577   -0.0208 H   0  0  0  0  0  0  0  0  0  0  0  0
    3.6331   -1.5904    0.6282 H   0  0  0  0  0  0  0  0  0  0  0  0
    3.8816   -1.1074   -1.0660 H   0  0  0  0  0  0  0  0  0  0  0  0
    4.7814    0.3694    1.4433 H   0  0  0  0  0  0  0  0  0  0  0  0
    5.8027   -0.3120    0.1507 H   0  0  0  0  0  0  0  0  0  0  0  0
    5.8073    3.4740   -1.9342 H   0  0  0  0  0  0  0  0  0  0  0  0
    4.9036    4.1998   -0.5833 H   0  0  0  0  0  0  0  0  0  0  0  0
    6.9909    4.7443    0.4333 H   0  0  0  0  0  0  0  0  0  0  0  0
    6.8483    5.5898   -2.3746 H   0  0  0  0  0  0  0  0  0  0  0  0
    5.9446    6.3156   -1.0237 H   0  0  0  0  0  0  0  0  0  0  0  0
    8.9474    9.2376   -0.2952 H   0  0  0  0  0  0  0  0  0  0  0  0
   10.0392    8.4758   -1.4808 H   0  0  0  0  0  0  0  0  0  0  0  0
    9.6439   10.9872   -1.8050 H   0  0  0  0  0  0  0  0  0  0  0  0
    9.3226    9.9707   -3.2294 H   0  0  0  0  0  0  0  0  0  0  0  0
    8.1728   12.6530   -2.9489 H   0  0  0  0  0  0  0  0  0  0  0  0
    3.9789   12.0921   -2.4034 H   0  0  0  0  0  0  0  0  0  0  0  0
    4.3841    9.7802   -1.6719 H   0  0  0  0  0  0  0  0  0  0  0  0
    7.2962    7.4340    0.7395 H   0  0  0  0  0  0  0  0  0  0  0  0
    7.1997    1.4850   -1.3940 H   0  0  0  0  0  0  0  0  0  0  0  0
    7.8274    4.0724   -0.8172 H   0  0  0  0  0  0  0  0  0  0  0  0
  1  6  2  0  0  0  0
  1  2  1  0  0  0  0
  1 34  1  0  0  0  0
  2  3  2  0  0  0  0
  2 35  1  0  0  0  0
  3 12  1  0  0  0  0
  3  4  1  0  0  0  0
  4  5  2  0  0  0  0
  4  8  1  0  0  0  0
  5  6  1  0  0  0  0
  5 36  1  0  0  0  0
  6  7  1  0  0  0  0
  8  9  1  0  0  0  0
  8 37  1  0  0  0  0
  8 38  1  0  0  0  0
  9 10  1  0  0  0  0
  9 39  1  0  0  0  0
  9 40  1  0  0  0  0
 10 11  1  6  0  0  0
 10 12  1  0  0  0  0
 10 13  1  0  0  0  0
 13 14  1  1  0  0  0
 13 15  1  0  0  0  0
 13 33  1  0  0  0  0
 15 16  1  0  0  0  0
 15 41  1  0  0  0  0
 15 42  1  0  0  0  0
 16 17  1  0  0  0  0
 16 43  1  0  0  0  0
 16 55  1  0  0  0  0
 17 18  1  0  0  0  0
 17 44  1  0  0  0  0
 17 45  1  0  0  0  0
 18 19  1  6  0  0  0
 18 20  1  0  0  0  0
 18 32  1  0  0  0  0
 20 21  1  6  0  0  0
 20 30  1  0  0  0  0
 20 22  1  0  0  0  0
 22 23  1  0  0  0  0
 22 46  1  0  0  0  0
 22 47  1  0  0  0  0
 23 24  1  0  0  0  0
 23 48  1  0  0  0  0
 23 49  1  0  0  0  0
 24 29  2  0  0  0  0
 24 25  1  0  0  0  0
 25 26  2  0  0  0  0
 25 50  1  0  0  0  0
 26 27  1  0  0  0  0
 26 31  1  0  0  0  0
 27 28  2  0  0  0  0
 27 51  1  0  0  0  0
 28 29  1  0  0  0  0
 28 52  1  0  0  0  0
 29 30  1  0  0  0  0
 32 53  1  0  0  0  0
 33 54  1  0  0  0  0
M  CHG  1  16   1
M  END
$$$$
