ZINC01530613
 OpenBabel08292219463D

 58 59  0  0  0  0  0  0  0  0999 V2000
    0.1106    1.0426   -2.4306 C   0  0  0  0  0  0  0  0  0  0  0  0
    0.1015   -0.4827   -2.5492 C   0  0  0  0  0  0  0  0  0  0  0  0
    0.9690   -1.0596   -1.5136 N   0  3  0  0  0  0  0  0  0  0  0  0
    0.4078   -0.7696   -0.1874 C   0  0  0  0  0  0  0  0  0  0  0  0
    1.3816   -1.2438    0.8933 C   0  0  0  0  0  0  0  0  0  0  0  0
    1.0553   -2.5140   -1.7015 C   0  0  0  0  0  0  0  0  0  0  0  0
    1.7598   -2.8163   -3.0256 C   0  0  0  0  0  0  0  0  0  0  0  0
    3.1110   -2.3557   -2.9622 O   0  0  0  0  0  0  0  0  0  0  0  0
    3.8432   -2.4589   -4.0825 C   0  0  0  0  0  0  0  0  0  0  0  0
    3.3281   -2.8367   -5.1082 O   0  0  0  0  0  0  0  0  0  0  0  0
    5.3075   -2.1037   -4.0610 C   0  0  0  0  0  0  0  0  0  0  0  0
    5.4707   -0.6376   -3.6550 C   0  0  0  0  0  0  0  0  0  0  0  0
    4.8738   -0.4246   -2.2625 C   0  0  0  0  0  0  0  0  0  0  0  0
    5.6004   -1.3169   -1.2542 C   0  0  0  0  0  0  0  0  0  0  0  0
    5.4371   -2.7830   -1.6602 C   0  0  0  0  0  0  0  0  0  0  0  0
    6.0341   -2.9960   -3.0527 C   0  0  0  0  0  0  0  0  0  0  0  0
    5.9045   -2.3167   -5.4536 C   0  0  0  0  0  0  0  0  0  0  0  0
    5.7413   -3.7828   -5.8596 C   0  0  0  0  0  0  0  0  0  0  0  0
    6.3382   -3.9958   -7.2522 C   0  0  0  0  0  0  0  0  0  0  0  0
    5.6117   -3.1034   -8.2605 C   0  0  0  0  0  0  0  0  0  0  0  0
    5.7749   -1.6373   -7.8544 C   0  0  0  0  0  0  0  0  0  0  0  0
    5.1779   -1.4243   -6.4619 C   0  0  0  0  0  0  0  0  0  0  0  0
   -0.2565    1.3327   -1.4461 H   0  0  0  0  0  0  0  0  0  0  0  0
    1.1279    1.4112   -2.5621 H   0  0  0  0  0  0  0  0  0  0  0  0
   -0.5332    1.4707   -3.1990 H   0  0  0  0  0  0  0  0  0  0  0  0
   -0.9159   -0.8513   -2.4177 H   0  0  0  0  0  0  0  0  0  0  0  0
    0.4686   -0.7728   -3.5337 H   0  0  0  0  0  0  0  0  0  0  0  0
    0.2485    0.3040   -0.0871 H   0  0  0  0  0  0  0  0  0  0  0  0
   -0.5430   -1.2903   -0.0734 H   0  0  0  0  0  0  0  0  0  0  0  0
    2.3170   -0.6908    0.8074 H   0  0  0  0  0  0  0  0  0  0  0  0
    0.9456   -1.0697    1.8770 H   0  0  0  0  0  0  0  0  0  0  0  0
    1.5759   -2.3087    0.7653 H   0  0  0  0  0  0  0  0  0  0  0  0
    1.6213   -2.9535   -0.8802 H   0  0  0  0  0  0  0  0  0  0  0  0
    0.0514   -2.9383   -1.7189 H   0  0  0  0  0  0  0  0  0  0  0  0
    1.7504   -3.8914   -3.2050 H   0  0  0  0  0  0  0  0  0  0  0  0
    1.2403   -2.3079   -3.8379 H   0  0  0  0  0  0  0  0  0  0  0  0
    6.5299   -0.3806   -3.6395 H   0  0  0  0  0  0  0  0  0  0  0  0
    4.9531   -0.0018   -4.3733 H   0  0  0  0  0  0  0  0  0  0  0  0
    4.9901    0.6199   -1.9732 H   0  0  0  0  0  0  0  0  0  0  0  0
    3.8146   -0.6815   -2.2780 H   0  0  0  0  0  0  0  0  0  0  0  0
    6.6595   -1.0600   -1.2386 H   0  0  0  0  0  0  0  0  0  0  0  0
    5.1751   -1.1652   -0.2621 H   0  0  0  0  0  0  0  0  0  0  0  0
    5.9548   -3.4188   -0.9419 H   0  0  0  0  0  0  0  0  0  0  0  0
    4.3780   -3.0400   -1.6757 H   0  0  0  0  0  0  0  0  0  0  0  0
    5.9178   -4.0405   -3.3420 H   0  0  0  0  0  0  0  0  0  0  0  0
    7.0933   -2.7391   -3.0372 H   0  0  0  0  0  0  0  0  0  0  0  0
    6.9636   -2.0597   -5.4381 H   0  0  0  0  0  0  0  0  0  0  0  0
    6.2589   -4.4185   -5.1413 H   0  0  0  0  0  0  0  0  0  0  0  0
    4.6821   -4.0397   -5.8752 H   0  0  0  0  0  0  0  0  0  0  0  0
    7.3974   -3.7388   -7.2366 H   0  0  0  0  0  0  0  0  0  0  0  0
    6.2219   -5.0403   -7.5414 H   0  0  0  0  0  0  0  0  0  0  0  0
    6.0369   -3.2552   -9.2525 H   0  0  0  0  0  0  0  0  0  0  0  0
    4.5525   -3.3604   -8.2760 H   0  0  0  0  0  0  0  0  0  0  0  0
    6.8340   -1.3804   -7.8389 H   0  0  0  0  0  0  0  0  0  0  0  0
    5.2573   -1.0016   -8.5728 H   0  0  0  0  0  0  0  0  0  0  0  0
    4.1188   -1.6813   -6.4774 H   0  0  0  0  0  0  0  0  0  0  0  0
    5.2942   -0.3798   -6.1726 H   0  0  0  0  0  0  0  0  0  0  0  0
    1.8911   -0.6561   -1.5842 H   0  0  0  0  0  0  0  0  0  0  0  0
  1  2  1  0  0  0  0
  1 23  1  0  0  0  0
  1 24  1  0  0  0  0
  1 25  1  0  0  0  0
  2  3  1  0  0  0  0
  2 26  1  0  0  0  0
  2 27  1  0  0  0  0
  3  4  1  0  0  0  0
  3  6  1  0  0  0  0
  3 58  1  0  0  0  0
  4  5  1  0  0  0  0
  4 28  1  0  0  0  0
  4 29  1  0  0  0  0
  5 30  1  0  0  0  0
  5 31  1  0  0  0  0
  5 32  1  0  0  0  0
  6  7  1  0  0  0  0
  6 33  1  0  0  0  0
  6 34  1  0  0  0  0
  7  8  1  0  0  0  0
  7 35  1  0  0  0  0
  7 36  1  0  0  0  0
  8  9  1  0  0  0  0
  9 10  2  0  0  0  0
  9 11  1  0  0  0  0
 11 16  1  0  0  0  0
 11 12  1  0  0  0  0
 11 17  1  0  0  0  0
 12 13  1  0  0  0  0
 12 37  1  0  0  0  0
 12 38  1  0  0  0  0
 13 14  1  0  0  0  0
 13 39  1  0  0  0  0
 13 40  1  0  0  0  0
 14 15  1  0  0  0  0
 14 41  1  0  0  0  0
 14 42  1  0  0  0  0
 15 16  1  0  0  0  0
 15 43  1  0  0  0  0
 15 44  1  0  0  0  0
 16 45  1  0  0  0  0
 16 46  1  0  0  0  0
 17 22  1  0  0  0  0
 17 18  1  0  0  0  0
 17 47  1  0  0  0  0
 18 19  1  0  0  0  0
 18 48  1  0  0  0  0
 18 49  1  0  0  0  0
 19 20  1  0  0  0  0
 19 50  1  0  0  0  0
 19 51  1  0  0  0  0
 20 21  1  0  0  0  0
 20 52  1  0  0  0  0
 20 53  1  0  0  0  0
 21 22  1  0  0  0  0
 21 54  1  0  0  0  0
 21 55  1  0  0  0  0
 22 56  1  0  0  0  0
 22 57  1  0  0  0  0
M  CHG  1   3   1
M  END
$$$$
