ZINC43207238
 OpenBabel08292219463D

 56 59  0  0  1  0  0  0  0  0999 V2000
   -0.0184    1.5028    0.0103 C   0  0  0  0  0  0  0  0  0  0  0  0
    0.0021   -0.0041    0.0020 C   0  0  0  0  0  0  0  0  0  0  0  0
    0.0057   -0.6888   -1.1991 C   0  0  0  0  0  0  0  0  0  0  0  0
    0.0245   -2.0707   -1.2067 C   0  0  0  0  0  0  0  0  0  0  0  0
    0.0400   -2.7685   -0.0132 C   0  0  0  0  0  0  0  0  0  0  0  0
    0.0373   -2.0840    1.1875 C   0  0  0  0  0  0  0  0  0  0  0  0
    0.0229   -0.7015    1.1951 C   0  0  0  0  0  0  0  0  0  0  0  0
    0.0252    0.0449    2.5043 C   0  0  0  0  0  0  0  0  0  0  0  0
   -1.3913    0.3821    2.8928 C   0  0  0  0  0  0  0  0  0  0  0  0
   -2.2662   -0.3392    3.6391 C   0  0  0  0  0  0  0  0  0  0  0  0
   -3.5264    0.1671    3.8724 C   0  0  0  0  0  0  0  0  0  0  0  0
   -3.8546    1.3856    3.3413 C   0  0  0  0  0  0  0  0  0  0  0  0
   -2.3477    1.8364    2.4966 S   0  0  0  0  0  0  0  0  0  0  0  0
   -5.1243    2.1358    3.4456 C   0  0  0  0  0  0  0  0  0  0  0  0
   -6.1925    1.6071    4.1720 C   0  0  0  0  0  0  0  0  0  0  0  0
   -7.3748    2.3112    4.2660 C   0  0  0  0  0  0  0  0  0  0  0  0
   -7.5034    3.5410    3.6406 C   0  0  0  0  0  0  0  0  0  0  0  0
   -6.4461    4.0705    2.9182 C   0  0  0  0  0  0  0  0  0  0  0  0
   -5.2572    3.3777    2.8229 C   0  0  0  0  0  0  0  0  0  0  0  0
   -8.6640    4.2261    3.7351 F   0  0  0  0  0  0  0  0  0  0  0  0
    0.0595   -4.2753   -0.0215 C   0  0  1  0  0  0  0  0  0  0  0  0
    0.4209   -4.6395    0.9402 H   0  0  0  0  0  0  0  0  0  0  0  0
   -1.3565   -4.8028   -0.2677 C   0  0  1  0  0  0  0  0  0  0  0  0
   -1.7342   -4.4062   -1.2101 H   0  0  0  0  0  0  0  0  0  0  0  0
   -1.3185   -6.3327   -0.3347 C   0  0  2  0  0  0  0  0  0  0  0  0
   -0.9880   -6.7315    0.6244 H   0  0  0  0  0  0  0  0  0  0  0  0
   -0.3397   -6.7606   -1.4324 C   0  0  1  0  0  0  0  0  0  0  0  0
   -0.6969   -6.4035   -2.3984 H   0  0  0  0  0  0  0  0  0  0  0  0
    1.0370   -6.1574   -1.1412 C   0  0  2  0  0  0  0  0  0  0  0  0
    1.4113   -6.5464   -0.1943 H   0  0  0  0  0  0  0  0  0  0  0  0
    0.9254   -4.7350   -1.0612 O   0  0  0  0  0  0  0  0  0  0  0  0
    2.0057   -6.5310   -2.2650 C   0  0  0  0  0  0  0  0  0  0  0  0
    3.3172   -6.0678   -1.9369 O   0  0  0  0  0  0  0  0  0  0  0  0
   -0.2425   -8.1860   -1.4565 O   0  0  0  0  0  0  0  0  0  0  0  0
   -2.6239   -6.8305   -0.6351 O   0  0  0  0  0  0  0  0  0  0  0  0
   -2.2118   -4.3914    0.8006 O   0  0  0  0  0  0  0  0  0  0  0  0
    1.0042    1.8801    0.0026 H   0  0  0  0  0  0  0  0  0  0  0  0
   -0.5455    1.8639   -0.8728 H   0  0  0  0  0  0  0  0  0  0  0  0
   -0.5286    1.8543    0.9071 H   0  0  0  0  0  0  0  0  0  0  0  0
   -0.0064   -0.1437   -2.1314 H   0  0  0  0  0  0  0  0  0  0  0  0
    0.0266   -2.6056   -2.1449 H   0  0  0  0  0  0  0  0  0  0  0  0
    0.0491   -2.6290    2.1199 H   0  0  0  0  0  0  0  0  0  0  0  0
    0.4754   -0.5783    3.2770 H   0  0  0  0  0  0  0  0  0  0  0  0
    0.6013    0.9641    2.3974 H   0  0  0  0  0  0  0  0  0  0  0  0
   -1.9784   -1.2980    4.0446 H   0  0  0  0  0  0  0  0  0  0  0  0
   -4.2415   -0.3867    4.4624 H   0  0  0  0  0  0  0  0  0  0  0  0
   -6.0935    0.6484    4.6592 H   0  0  0  0  0  0  0  0  0  0  0  0
   -8.2020    1.9030    4.8278 H   0  0  0  0  0  0  0  0  0  0  0  0
   -6.5518    5.0293    2.4324 H   0  0  0  0  0  0  0  0  0  0  0  0
   -4.4321    3.7935    2.2637 H   0  0  0  0  0  0  0  0  0  0  0  0
    2.0225   -7.6143   -2.3851 H   0  0  0  0  0  0  0  0  0  0  0  0
    1.6788   -6.0673   -3.1957 H   0  0  0  0  0  0  0  0  0  0  0  0
    3.9848   -6.2703   -2.6065 H   0  0  0  0  0  0  0  0  0  0  0  0
   -1.0810   -8.6346   -1.6318 H   0  0  0  0  0  0  0  0  0  0  0  0
   -2.6735   -7.7945   -0.6929 H   0  0  0  0  0  0  0  0  0  0  0  0
   -3.1266   -4.6913    0.7097 H   0  0  0  0  0  0  0  0  0  0  0  0
  1  2  1  0  0  0  0
  1 37  1  0  0  0  0
  1 38  1  0  0  0  0
  1 39  1  0  0  0  0
  2  7  2  0  0  0  0
  2  3  1  0  0  0  0
  3  4  2  0  0  0  0
  3 40  1  0  0  0  0
  4  5  1  0  0  0  0
  4 41  1  0  0  0  0
  5  6  2  0  0  0  0
  5 21  1  0  0  0  0
  6  7  1  0  0  0  0
  6 42  1  0  0  0  0
  7  8  1  0  0  0  0
  8  9  1  0  0  0  0
  8 43  1  0  0  0  0
  8 44  1  0  0  0  0
  9 13  1  0  0  0  0
  9 10  2  0  0  0  0
 10 11  1  0  0  0  0
 10 45  1  0  0  0  0
 11 12  2  0  0  0  0
 11 46  1  0  0  0  0
 12 13  1  0  0  0  0
 12 14  1  0  0  0  0
 14 19  2  0  0  0  0
 14 15  1  0  0  0  0
 15 16  2  0  0  0  0
 15 47  1  0  0  0  0
 16 17  1  0  0  0  0
 16 48  1  0  0  0  0
 17 18  2  0  0  0  0
 17 20  1  0  0  0  0
 18 19  1  0  0  0  0
 18 49  1  0  0  0  0
 19 50  1  0  0  0  0
 21 22  1  1  0  0  0
 21 31  1  0  0  0  0
 21 23  1  0  0  0  0
 23 24  1  6  0  0  0
 23 25  1  0  0  0  0
 23 36  1  0  0  0  0
 25 26  1  1  0  0  0
 25 27  1  0  0  0  0
 25 35  1  0  0  0  0
 27 28  1  6  0  0  0
 27 29  1  0  0  0  0
 27 34  1  0  0  0  0
 29 30  1  1  0  0  0
 29 31  1  0  0  0  0
 29 32  1  0  0  0  0
 32 33  1  0  0  0  0
 32 51  1  0  0  0  0
 32 52  1  0  0  0  0
 33 53  1  0  0  0  0
 34 54  1  0  0  0  0
 35 55  1  0  0  0  0
 36 56  1  0  0  0  0
M  END
$$$$
