ZINC00057175
 OpenBabel08292219463D

 26 27  0  0  0  0  0  0  0  0999 V2000
    4.2929    4.3975   -0.5383 C   0  0  0  0  0  0  0  0  0  0  0  0
    5.5899    3.9406   -0.3447 C   0  0  0  0  0  0  0  0  0  0  0  0
    5.8176    2.6049   -0.0407 C   0  0  0  0  0  0  0  0  0  0  0  0
    4.7535    1.7301    0.0696 C   0  0  0  0  0  0  0  0  0  0  0  0
    3.4560    2.1869   -0.1240 C   0  0  0  0  0  0  0  0  0  0  0  0
    3.2289    3.5219   -0.4337 C   0  0  0  0  0  0  0  0  0  0  0  0
    1.6081    4.0916   -0.6827 Cl  0  0  0  0  0  0  0  0  0  0  0  0
    2.3758    1.2991   -0.0125 N   0  0  0  0  0  0  0  0  0  0  0  0
    1.7483    1.1279    1.1999 C   0  0  0  0  0  0  0  0  0  0  0  0
    1.2774    1.3311    3.4077 C   0  0  0  0  0  0  0  0  0  0  0  0
    0.2414    0.3809    2.7750 C   0  0  0  0  0  0  0  0  0  0  0  0
    0.6510    0.3268    1.3617 N   0  0  0  0  0  0  0  0  0  0  0  0
    5.0382    0.0606    0.4508 Cl  0  0  0  0  0  0  0  0  0  0  0  0
    6.6675    4.8264   -0.4555 N   0  0  0  0  0  0  0  0  0  0  0  0
    4.1160    5.4363   -0.7751 H   0  0  0  0  0  0  0  0  0  0  0  0
    6.8264    2.2497    0.1098 H   0  0  0  0  0  0  0  0  0  0  0  0
    2.0712    0.8058   -0.7901 H   0  0  0  0  0  0  0  0  0  0  0  0
    1.8522    0.8167    4.1779 H   0  0  0  0  0  0  0  0  0  0  0  0
    0.7845    2.2100    3.8232 H   0  0  0  0  0  0  0  0  0  0  0  0
   -0.7649    0.7893    2.8683 H   0  0  0  0  0  0  0  0  0  0  0  0
    0.3001   -0.6076    3.2305 H   0  0  0  0  0  0  0  0  0  0  0  0
    0.2147   -0.1861    0.6635 H   0  0  0  0  0  0  0  0  0  0  0  0
    7.5734    4.5074   -0.3200 H   0  0  0  0  0  0  0  0  0  0  0  0
    6.5085    5.7594   -0.6678 H   0  0  0  0  0  0  0  0  0  0  0  0
    2.1486    1.7127    2.2844 N   0  0  0  0  0  4  0  0  0  0  0  0
    2.9531    2.3473    2.3505 H   0  0  0  0  0  0  0  0  0  0  0  0
  1  6  2  0  0  0  0
  1  2  1  0  0  0  0
  1 15  1  0  0  0  0
  2  3  2  0  0  0  0
  2 14  1  0  0  0  0
  3  4  1  0  0  0  0
  3 16  1  0  0  0  0
  4  5  2  0  0  0  0
  4 13  1  0  0  0  0
  5  6  1  0  0  0  0
  5  8  1  0  0  0  0
  6  7  1  0  0  0  0
  8  9  1  0  0  0  0
  8 17  1  0  0  0  0
  9 12  1  0  0  0  0
  9 25  2  0  0  0  0
 10 11  1  0  0  0  0
 10 18  1  0  0  0  0
 10 19  1  0  0  0  0
 10 25  1  0  0  0  0
 11 12  1  0  0  0  0
 11 20  1  0  0  0  0
 11 21  1  0  0  0  0
 12 22  1  0  0  0  0
 14 23  1  0  0  0  0
 14 24  1  0  0  0  0
 25 26  1  0  0  0  0
M  END
$$$$
