ZINC01999542
 OpenBabel08292219463D

 56 58  0  0  1  0  0  0  0  0999 V2000
   -0.3111    0.4521    0.2202 C   0  0  0  0  0  0  0  0  0  0  0  0
    1.1323    0.8207    0.5686 C   0  0  0  0  0  0  0  0  0  0  0  0
    1.9710    0.8623   -0.7104 C   0  0  0  0  0  0  0  0  0  0  0  0
    1.9437   -0.5116   -1.3831 C   0  0  0  0  0  0  0  0  0  0  0  0
    0.5002   -0.8803   -1.7315 C   0  0  0  0  0  0  0  0  0  0  0  0
   -0.3385   -0.9218   -0.4525 C   0  0  0  0  0  0  0  0  0  0  0  0
    2.7823   -0.4700   -2.6620 C   0  0  0  0  0  0  0  0  0  0  0  0
    4.1877    0.0382   -2.3341 C   0  0  0  0  0  0  0  0  0  0  0  0
    4.1911    1.5682   -2.3405 C   0  0  1  0  0  0  0  0  0  0  0  0
    3.4282    1.9357   -1.6541 H   0  0  0  0  0  0  0  0  0  0  0  0
    5.5641    2.0764   -1.8954 C   0  0  0  0  0  0  0  0  0  0  0  0
    5.5626    3.6078   -1.9031 C   0  0  0  0  0  0  0  0  0  0  0  0
    5.1871    4.1011   -3.3035 C   0  0  0  0  0  0  0  0  0  0  0  0
    3.8280    3.5178   -3.6963 C   0  0  0  0  0  0  0  0  0  0  0  0
    3.9028    2.0519   -3.6960 N   0  3  0  0  0  0  0  0  0  0  0  0
    2.8747   -1.8764   -3.2573 C   0  0  0  0  0  0  0  0  0  0  0  0
    3.6742   -2.7779   -2.3145 C   0  0  0  0  0  0  0  0  0  0  0  0
    3.7665   -4.1843   -2.9098 C   0  0  0  0  0  0  0  0  0  0  0  0
    4.4672   -4.1181   -4.2682 C   0  0  0  0  0  0  0  0  0  0  0  0
    3.6677   -3.2167   -5.2111 C   0  0  0  0  0  0  0  0  0  0  0  0
    3.5754   -1.8102   -4.6158 C   0  0  0  0  0  0  0  0  0  0  0  0
   -0.9086    0.4224    1.1314 H   0  0  0  0  0  0  0  0  0  0  0  0
   -0.7225    1.1979   -0.4600 H   0  0  0  0  0  0  0  0  0  0  0  0
    1.1518    1.7995    1.0479 H   0  0  0  0  0  0  0  0  0  0  0  0
    1.5437    0.0749    1.2488 H   0  0  0  0  0  0  0  0  0  0  0  0
    1.5596    1.6081   -1.3905 H   0  0  0  0  0  0  0  0  0  0  0  0
    2.9994    1.1249   -0.4621 H   0  0  0  0  0  0  0  0  0  0  0  0
    2.3551   -1.2574   -0.7029 H   0  0  0  0  0  0  0  0  0  0  0  0
    0.0888   -0.1344   -2.4116 H   0  0  0  0  0  0  0  0  0  0  0  0
    0.4807   -1.8591   -2.2107 H   0  0  0  0  0  0  0  0  0  0  0  0
    0.0729   -1.6677    0.2277 H   0  0  0  0  0  0  0  0  0  0  0  0
   -1.3668   -1.1845   -0.7007 H   0  0  0  0  0  0  0  0  0  0  0  0
    2.3129    0.1995   -3.3828 H   0  0  0  0  0  0  0  0  0  0  0  0
    4.4834   -0.3217   -1.3486 H   0  0  0  0  0  0  0  0  0  0  0  0
    4.8907   -0.3298   -3.0813 H   0  0  0  0  0  0  0  0  0  0  0  0
    5.7761    1.7177   -0.8882 H   0  0  0  0  0  0  0  0  0  0  0  0
    6.3278    1.7098   -2.5813 H   0  0  0  0  0  0  0  0  0  0  0  0
    4.8346    3.9752   -1.1799 H   0  0  0  0  0  0  0  0  0  0  0  0
    6.5551    3.9746   -1.6415 H   0  0  0  0  0  0  0  0  0  0  0  0
    5.1295    5.1895   -3.3027 H   0  0  0  0  0  0  0  0  0  0  0  0
    5.9429    3.7764   -4.0186 H   0  0  0  0  0  0  0  0  0  0  0  0
    3.0729    3.8433   -2.9808 H   0  0  0  0  0  0  0  0  0  0  0  0
    3.5576    3.8672   -4.6927 H   0  0  0  0  0  0  0  0  0  0  0  0
    4.6358    1.7529   -4.3217 H   0  0  0  0  0  0  0  0  0  0  0  0
    1.8716   -2.2833   -3.3854 H   0  0  0  0  0  0  0  0  0  0  0  0
    4.6773   -2.3710   -2.1864 H   0  0  0  0  0  0  0  0  0  0  0  0
    3.1750   -2.8250   -1.3466 H   0  0  0  0  0  0  0  0  0  0  0  0
    4.3361   -4.8265   -2.2380 H   0  0  0  0  0  0  0  0  0  0  0  0
    2.7635   -4.5912   -3.0378 H   0  0  0  0  0  0  0  0  0  0  0  0
    5.4703   -3.7112   -4.1402 H   0  0  0  0  0  0  0  0  0  0  0  0
    4.5330   -5.1200   -4.6924 H   0  0  0  0  0  0  0  0  0  0  0  0
    4.1669   -3.1695   -6.1789 H   0  0  0  0  0  0  0  0  0  0  0  0
    2.6646   -3.6236   -5.3391 H   0  0  0  0  0  0  0  0  0  0  0  0
    3.0058   -1.1680   -5.2876 H   0  0  0  0  0  0  0  0  0  0  0  0
    4.5784   -1.4033   -4.4878 H   0  0  0  0  0  0  0  0  0  0  0  0
    3.0216    1.6715   -4.0074 H   0  0  0  0  0  0  0  0  0  0  0  0
  1  6  1  0  0  0  0
  1  2  1  0  0  0  0
  1 22  1  0  0  0  0
  1 23  1  0  0  0  0
  2  3  1  0  0  0  0
  2 24  1  0  0  0  0
  2 25  1  0  0  0  0
  3  4  1  0  0  0  0
  3 26  1  0  0  0  0
  3 27  1  0  0  0  0
  4  5  1  0  0  0  0
  4  7  1  0  0  0  0
  4 28  1  0  0  0  0
  5  6  1  0  0  0  0
  5 29  1  0  0  0  0
  5 30  1  0  0  0  0
  6 31  1  0  0  0  0
  6 32  1  0  0  0  0
  7  8  1  0  0  0  0
  7 16  1  0  0  0  0
  7 33  1  0  0  0  0
  8  9  1  0  0  0  0
  8 34  1  0  0  0  0
  8 35  1  0  0  0  0
  9 10  1  1  0  0  0
  9 15  1  0  0  0  0
  9 11  1  0  0  0  0
 11 12  1  0  0  0  0
 11 36  1  0  0  0  0
 11 37  1  0  0  0  0
 12 13  1  0  0  0  0
 12 38  1  0  0  0  0
 12 39  1  0  0  0  0
 13 14  1  0  0  0  0
 13 40  1  0  0  0  0
 13 41  1  0  0  0  0
 14 15  1  0  0  0  0
 14 42  1  0  0  0  0
 14 43  1  0  0  0  0
 15 44  1  0  0  0  0
 15 56  1  0  0  0  0
 16 21  1  0  0  0  0
 16 17  1  0  0  0  0
 16 45  1  0  0  0  0
 17 18  1  0  0  0  0
 17 46  1  0  0  0  0
 17 47  1  0  0  0  0
 18 19  1  0  0  0  0
 18 48  1  0  0  0  0
 18 49  1  0  0  0  0
 19 20  1  0  0  0  0
 19 50  1  0  0  0  0
 19 51  1  0  0  0  0
 20 21  1  0  0  0  0
 20 52  1  0  0  0  0
 20 53  1  0  0  0  0
 21 54  1  0  0  0  0
 21 55  1  0  0  0  0
M  CHG  1  15   1
M  END
$$$$
