ZINC01530799
 OpenBabel08292219463D

 38 37  0  0  1  0  0  0  0  0999 V2000
   -0.0187    1.5258    0.0104 C   0  0  0  0  0  0  0  0  0  0  0  0
    0.0021   -0.0041    0.0020 C   0  0  0  0  0  0  0  0  0  0  0  0
   -1.3386   -0.4987    0.0122 O   0  0  0  0  0  0  0  0  0  0  0  0
   -1.4964   -1.8317    0.0065 C   0  0  0  0  0  0  0  0  0  0  0  0
   -0.5283   -2.5546   -0.0066 O   0  0  0  0  0  0  0  0  0  0  0  0
   -2.8809   -2.4266    0.0165 C   0  0  0  0  0  0  0  0  0  0  0  0
   -2.7801   -3.9532    0.0074 C   0  0  1  0  0  0  0  0  0  0  0  0
   -2.1600   -4.2814    0.8416 H   0  0  0  0  0  0  0  0  0  0  0  0
   -4.1581   -4.5484    0.1412 C   0  0  0  0  0  0  0  0  0  0  0  0
   -5.1054   -3.9998   -0.3702 O   0  0  0  0  0  0  0  0  0  0  0  0
   -4.3331   -5.6880    0.8285 O   0  0  0  0  0  0  0  0  0  0  0  0
   -5.6662   -6.1954    0.9148 C   0  0  0  0  0  0  0  0  0  0  0  0
   -5.6674   -7.4900    1.7302 C   0  0  0  0  0  0  0  0  0  0  0  0
   -2.0339   -4.5006   -1.5528 S   0  0  0  0  0  0  0  0  0  0  0  0
   -1.8150   -6.5952   -1.3095 P   0  0  0  0  0  0  0  0  0  0  0  0
   -1.0512   -7.3225   -2.8459 S   0  0  0  0  0  0  0  0  0  0  0  0
   -0.8636   -6.8920   -0.0451 O   0  0  0  0  0  0  0  0  0  0  0  0
    0.5539   -6.7144   -0.0789 C   0  0  0  0  0  0  0  0  0  0  0  0
   -3.2599   -7.2606   -1.0619 O   0  0  0  0  0  0  0  0  0  0  0  0
   -4.4141   -6.9250   -1.8347 C   0  0  0  0  0  0  0  0  0  0  0  0
    1.0039    1.9031    0.0027 H   0  0  0  0  0  0  0  0  0  0  0  0
   -0.5459    1.8868   -0.8726 H   0  0  0  0  0  0  0  0  0  0  0  0
   -0.5289    1.8773    0.9072 H   0  0  0  0  0  0  0  0  0  0  0  0
    0.5123   -0.3556   -0.8948 H   0  0  0  0  0  0  0  0  0  0  0  0
    0.5293   -0.3651    0.8851 H   0  0  0  0  0  0  0  0  0  0  0  0
   -3.4091   -2.1027    0.9134 H   0  0  0  0  0  0  0  0  0  0  0  0
   -3.4261   -2.0931   -0.8665 H   0  0  0  0  0  0  0  0  0  0  0  0
   -6.3046   -5.4585    1.4022 H   0  0  0  0  0  0  0  0  0  0  0  0
   -6.0439   -6.3970   -0.0876 H   0  0  0  0  0  0  0  0  0  0  0  0
   -6.6843   -7.8770    1.7960 H   0  0  0  0  0  0  0  0  0  0  0  0
   -5.0290   -8.2270    1.2428 H   0  0  0  0  0  0  0  0  0  0  0  0
   -5.2898   -7.2884    2.7326 H   0  0  0  0  0  0  0  0  0  0  0  0
    0.9764   -6.9781    0.8906 H   0  0  0  0  0  0  0  0  0  0  0  0
    0.9823   -7.3563   -0.8487 H   0  0  0  0  0  0  0  0  0  0  0  0
    0.7843   -5.6732   -0.3046 H   0  0  0  0  0  0  0  0  0  0  0  0
   -5.2683   -7.5029   -1.4818 H   0  0  0  0  0  0  0  0  0  0  0  0
   -4.6261   -5.8611   -1.7278 H   0  0  0  0  0  0  0  0  0  0  0  0
   -4.2284   -7.1549   -2.8838 H   0  0  0  0  0  0  0  0  0  0  0  0
  1  2  1  0  0  0  0
  1 21  1  0  0  0  0
  1 22  1  0  0  0  0
  1 23  1  0  0  0  0
  2  3  1  0  0  0  0
  2 24  1  0  0  0  0
  2 25  1  0  0  0  0
  3  4  1  0  0  0  0
  4  5  2  0  0  0  0
  4  6  1  0  0  0  0
  6  7  1  0  0  0  0
  6 26  1  0  0  0  0
  6 27  1  0  0  0  0
  7  8  1  1  0  0  0
  7  9  1  0  0  0  0
  7 14  1  0  0  0  0
  9 10  2  0  0  0  0
  9 11  1  0  0  0  0
 11 12  1  0  0  0  0
 12 13  1  0  0  0  0
 12 28  1  0  0  0  0
 12 29  1  0  0  0  0
 13 30  1  0  0  0  0
 13 31  1  0  0  0  0
 13 32  1  0  0  0  0
 14 15  1  0  0  0  0
 15 16  2  0  0  0  0
 15 17  1  0  0  0  0
 15 19  1  0  0  0  0
 17 18  1  0  0  0  0
 18 33  1  0  0  0  0
 18 34  1  0  0  0  0
 18 35  1  0  0  0  0
 19 20  1  0  0  0  0
 20 36  1  0  0  0  0
 20 37  1  0  0  0  0
 20 38  1  0  0  0  0
M  END
$$$$
