ZINC02539484
 OpenBabel08292219463D

 20 19  0  0  0  0  0  0  0  0999 V2000
   -0.8017    1.9868   -1.1173 C   0  0  0  0  0  0  0  0  0  0  0  0
    0.0021   -0.0041    0.0020 C   0  0  0  0  0  0  0  0  0  0  0  0
   -1.4090   -0.5347    0.2631 C   0  0  0  0  0  0  0  0  0  0  0  0
   -1.3846   -2.3375    0.2532 Cl  0  0  0  0  0  0  0  0  0  0  0  0
    1.3463    2.0098   -0.0000 C   0  0  0  0  0  0  0  0  0  0  0  0
    1.2952    3.5169    0.2591 C   0  0  0  0  0  0  0  0  0  0  0  0
    2.9695    4.1859    0.2467 Cl  0  0  0  0  0  0  0  0  0  0  0  0
   -1.8268    1.6230   -1.0465 H   0  0  0  0  0  0  0  0  0  0  0  0
   -0.8000    3.0764   -1.0873 H   0  0  0  0  0  0  0  0  0  0  0  0
   -0.3600    1.6485   -2.0545 H   0  0  0  0  0  0  0  0  0  0  0  0
    0.3492   -0.3574   -0.9689 H   0  0  0  0  0  0  0  0  0  0  0  0
    0.6750   -0.3626    0.7809 H   0  0  0  0  0  0  0  0  0  0  0  0
   -1.7561   -0.1814    1.2341 H   0  0  0  0  0  0  0  0  0  0  0  0
   -2.0819   -0.1762   -0.5158 H   0  0  0  0  0  0  0  0  0  0  0  0
    1.9362    1.5270    0.7791 H   0  0  0  0  0  0  0  0  0  0  0  0
    1.8048    1.8234   -0.9711 H   0  0  0  0  0  0  0  0  0  0  0  0
    0.7053    3.9997   -0.5200 H   0  0  0  0  0  0  0  0  0  0  0  0
    0.8367    3.7033    1.2302 H   0  0  0  0  0  0  0  0  0  0  0  0
   -0.0305    1.4733    0.0344 N   0  3  0  0  0  0  0  0  0  0  0  0
   -0.4856    1.7779    0.9029 H   0  0  0  0  0  0  0  0  0  0  0  0
  1  8  1  0  0  0  0
  1  9  1  0  0  0  0
  1 10  1  0  0  0  0
  1 19  1  0  0  0  0
  2  3  1  0  0  0  0
  2 11  1  0  0  0  0
  2 12  1  0  0  0  0
  2 19  1  0  0  0  0
  3  4  1  0  0  0  0
  3 13  1  0  0  0  0
  3 14  1  0  0  0  0
  5  6  1  0  0  0  0
  5 15  1  0  0  0  0
  5 16  1  0  0  0  0
  5 19  1  0  0  0  0
  6  7  1  0  0  0  0
  6 17  1  0  0  0  0
  6 18  1  0  0  0  0
 19 20  1  0  0  0  0
M  CHG  1  19   1
M  END
$$$$
