ZINC03802417
 OpenBabel08292219463D

 63 65  0  0  1  0  0  0  0  0999 V2000
    7.1065    1.2095    0.1366 C   0  0  0  0  0  0  0  0  0  0  0  0
    6.3271    1.1352    1.4511 C   0  0  1  0  0  0  0  0  0  0  0  0
    6.9196    0.6040    2.1959 H   0  0  0  0  0  0  0  0  0  0  0  0
    6.0292    2.5513    1.9491 C   0  0  0  0  0  0  0  0  0  0  0  0
    3.9221    2.5906    0.7528 C   0  0  0  0  0  0  0  0  0  0  0  0
    4.1572    1.1757    0.2190 C   0  0  0  0  0  0  0  0  0  0  0  0
    5.0082    0.3919    1.2220 C   0  0  2  0  0  0  0  0  0  0  0  0
    4.2528    0.2681    2.5468 C   0  0  0  0  0  0  0  0  0  0  0  0
    5.2934   -0.9829    0.6746 C   0  0  0  0  0  0  0  0  0  0  0  0
    4.8705   -1.3212   -0.5978 C   0  0  0  0  0  0  0  0  0  0  0  0
    5.1347   -2.5799   -1.1047 C   0  0  0  0  0  0  0  0  0  0  0  0
    5.8132   -3.5067   -0.3368 C   0  0  0  0  0  0  0  0  0  0  0  0
    6.2338   -3.1716    0.9418 C   0  0  0  0  0  0  0  0  0  0  0  0
    5.9720   -1.9058    1.4463 C   0  0  0  0  0  0  0  0  0  0  0  0
    6.9017   -4.0813    1.6989 O   0  0  0  0  0  0  0  0  0  0  0  0
    5.0241    4.6661    1.3345 C   0  0  0  0  0  0  0  0  0  0  0  0
    4.5861    5.4709    0.1092 C   0  0  2  0  0  0  0  0  0  0  0  0
    3.6841    5.0278   -0.3131 H   0  0  0  0  0  0  0  0  0  0  0  0
    5.7014    5.4532   -0.9379 C   0  0  0  0  0  0  0  0  0  0  0  0
    5.2321    6.1595   -2.1837 C   0  0  0  0  0  0  0  0  0  0  0  0
    4.4933    5.4742   -3.1300 C   0  0  0  0  0  0  0  0  0  0  0  0
    4.0587    6.1233   -4.2704 C   0  0  0  0  0  0  0  0  0  0  0  0
    4.3718    7.4550   -4.4696 C   0  0  0  0  0  0  0  0  0  0  0  0
    5.1150    8.1388   -3.5258 C   0  0  0  0  0  0  0  0  0  0  0  0
    5.5452    7.4911   -2.3828 C   0  0  0  0  0  0  0  0  0  0  0  0
    4.3030    6.8936    0.5177 C   0  0  0  0  0  0  0  0  0  0  0  0
    4.8728    7.3748    1.4741 O   0  0  0  0  0  0  0  0  0  0  0  0
    3.4166    7.6313   -0.1799 N   0  0  0  0  0  0  0  0  0  0  0  0
    3.2179    9.0444    0.1517 C   0  0  0  0  0  0  0  0  0  0  0  0
    2.0965    9.6039   -0.6853 C   0  0  0  0  0  0  0  0  0  0  0  0
    1.5843    8.9230   -1.5419 O   0  0  0  0  0  0  0  0  0  0  0  0
    6.5528    1.8157   -0.5804 H   0  0  0  0  0  0  0  0  0  0  0  0
    8.0819    1.6611    0.3175 H   0  0  0  0  0  0  0  0  0  0  0  0
    7.2401    0.2046   -0.2639 H   0  0  0  0  0  0  0  0  0  0  0  0
    6.9659    3.0880    2.0995 H   0  0  0  0  0  0  0  0  0  0  0  0
    5.4860    2.4977    2.8926 H   0  0  0  0  0  0  0  0  0  0  0  0
    3.3888    2.5368    1.7019 H   0  0  0  0  0  0  0  0  0  0  0  0
    3.3285    3.1558    0.0343 H   0  0  0  0  0  0  0  0  0  0  0  0
    3.1991    0.6738    0.0842 H   0  0  0  0  0  0  0  0  0  0  0  0
    4.6777    1.2293   -0.7371 H   0  0  0  0  0  0  0  0  0  0  0  0
    3.3120   -0.2567    2.3809 H   0  0  0  0  0  0  0  0  0  0  0  0
    4.8593   -0.2899    3.2601 H   0  0  0  0  0  0  0  0  0  0  0  0
    4.0490    1.2629    2.9431 H   0  0  0  0  0  0  0  0  0  0  0  0
    4.3364   -0.5995   -1.1981 H   0  0  0  0  0  0  0  0  0  0  0  0
    4.8070   -2.8404   -2.1003 H   0  0  0  0  0  0  0  0  0  0  0  0
    6.0155   -4.4914   -0.7316 H   0  0  0  0  0  0  0  0  0  0  0  0
    6.2982   -1.6426    2.4416 H   0  0  0  0  0  0  0  0  0  0  0  0
    6.3279   -4.6342    2.2467 H   0  0  0  0  0  0  0  0  0  0  0  0
    5.9619    5.0686    1.7173 H   0  0  0  0  0  0  0  0  0  0  0  0
    4.2576    4.7337    2.1066 H   0  0  0  0  0  0  0  0  0  0  0  0
    6.5803    5.9616   -0.5413 H   0  0  0  0  0  0  0  0  0  0  0  0
    5.9566    4.4214   -1.1795 H   0  0  0  0  0  0  0  0  0  0  0  0
    4.2524    4.4326   -2.9765 H   0  0  0  0  0  0  0  0  0  0  0  0
    3.4783    5.5889   -5.0080 H   0  0  0  0  0  0  0  0  0  0  0  0
    4.0360    7.9609   -5.3627 H   0  0  0  0  0  0  0  0  0  0  0  0
    5.3600    9.1791   -3.6815 H   0  0  0  0  0  0  0  0  0  0  0  0
    6.1262    8.0253   -1.6456 H   0  0  0  0  0  0  0  0  0  0  0  0
    2.9103    7.2267   -0.9016 H   0  0  0  0  0  0  0  0  0  0  0  0
    4.1345    9.5979   -0.0523 H   0  0  0  0  0  0  0  0  0  0  0  0
    2.9645    9.1376    1.2077 H   0  0  0  0  0  0  0  0  0  0  0  0
    5.2283    3.2603    0.9284 N   0  3  1  0  0  0  0  0  0  0  0  0
    5.7348    3.2414    0.0355 H   0  0  0  0  0  0  0  0  0  0  0  0
    1.6667   10.8587   -0.4791 O   0  0  0  0  0  1  0  0  0  0  0  0
  1  2  1  0  0  0  0
  1 32  1  0  0  0  0
  1 33  1  0  0  0  0
  1 34  1  0  0  0  0
  2  3  1  1  0  0  0
  2  7  1  0  0  0  0
  2  4  1  0  0  0  0
  4 35  1  0  0  0  0
  4 36  1  0  0  0  0
  4 61  1  0  0  0  0
  5  6  1  0  0  0  0
  5 37  1  0  0  0  0
  5 38  1  0  0  0  0
  5 61  1  0  0  0  0
  6  7  1  0  0  0  0
  6 39  1  0  0  0  0
  6 40  1  0  0  0  0
  7  8  1  1  0  0  0
  7  9  1  0  0  0  0
  8 41  1  0  0  0  0
  8 42  1  0  0  0  0
  8 43  1  0  0  0  0
  9 14  2  0  0  0  0
  9 10  1  0  0  0  0
 10 11  2  0  0  0  0
 10 44  1  0  0  0  0
 11 12  1  0  0  0  0
 11 45  1  0  0  0  0
 12 13  2  0  0  0  0
 12 46  1  0  0  0  0
 13 14  1  0  0  0  0
 13 15  1  0  0  0  0
 14 47  1  0  0  0  0
 15 48  1  0  0  0  0
 16 17  1  0  0  0  0
 16 49  1  0  0  0  0
 16 50  1  0  0  0  0
 16 61  1  0  0  0  0
 17 18  1  6  0  0  0
 17 19  1  0  0  0  0
 17 26  1  0  0  0  0
 19 20  1  0  0  0  0
 19 51  1  0  0  0  0
 19 52  1  0  0  0  0
 20 25  2  0  0  0  0
 20 21  1  0  0  0  0
 21 22  2  0  0  0  0
 21 53  1  0  0  0  0
 22 23  1  0  0  0  0
 22 54  1  0  0  0  0
 23 24  2  0  0  0  0
 23 55  1  0  0  0  0
 24 25  1  0  0  0  0
 24 56  1  0  0  0  0
 25 57  1  0  0  0  0
 26 27  2  0  0  0  0
 26 28  1  0  0  0  0
 28 29  1  0  0  0  0
 28 58  1  0  0  0  0
 29 30  1  0  0  0  0
 29 59  1  0  0  0  0
 29 60  1  0  0  0  0
 30 31  2  0  0  0  0
 30 63  1  0  0  0  0
 61 62  1  6  0  0  0
M  CHG  1  61   1
M  END
$$$$
