ZINC01530862
 OpenBabel08292219463D

 41 42  0  0  1  0  0  0  0  0999 V2000
   -0.0187    1.5258    0.0104 C   0  0  0  0  0  0  0  0  0  0  0  0
    0.0021   -0.0041    0.0020 C   0  0  1  0  0  0  0  0  0  0  0  0
    0.5123   -0.3556   -0.8948 H   0  0  0  0  0  0  0  0  0  0  0  0
    0.7421   -0.5109    1.2415 C   0  0  0  0  0  0  0  0  0  0  0  0
    0.8719   -2.0337    1.1708 C   0  0  0  0  0  0  0  0  0  0  0  0
    1.6119   -2.5406    2.4104 C   0  0  0  0  0  0  0  0  0  0  0  0
    1.7366   -4.0027    2.3425 N   0  3  0  0  0  0  0  0  0  0  0  0
   -1.3723   -0.5112    0.0124 N   0  0  0  0  0  0  0  0  0  0  0  0
   -2.0741   -0.6472   -1.1844 C   0  0  0  0  0  0  0  0  0  0  0  0
   -1.4767   -0.3114   -2.3781 C   0  0  0  0  0  0  0  0  0  0  0  0
   -2.1675   -0.4420   -3.5847 C   0  0  0  0  0  0  0  0  0  0  0  0
   -3.4621   -0.9103   -3.6065 C   0  0  0  0  0  0  0  0  0  0  0  0
   -4.0966   -1.2609   -2.4048 C   0  0  0  0  0  0  0  0  0  0  0  0
   -3.3997   -1.1359   -1.1780 C   0  0  0  0  0  0  0  0  0  0  0  0
   -4.0010   -1.4743   -0.0342 N   0  0  0  0  0  0  0  0  0  0  0  0
   -5.2304   -1.9286   -0.0180 C   0  0  0  0  0  0  0  0  0  0  0  0
   -5.9704   -2.0819   -1.1886 C   0  0  0  0  0  0  0  0  0  0  0  0
   -5.4200   -1.7427   -2.3915 C   0  0  0  0  0  0  0  0  0  0  0  0
   -1.5557   -0.1028   -4.7496 O   0  0  0  0  0  0  0  0  0  0  0  0
   -2.3146   -0.2587   -5.9504 C   0  0  0  0  0  0  0  0  0  0  0  0
    1.0039    1.9031    0.0027 H   0  0  0  0  0  0  0  0  0  0  0  0
   -0.5459    1.8868   -0.8726 H   0  0  0  0  0  0  0  0  0  0  0  0
   -0.5289    1.8773    0.9072 H   0  0  0  0  0  0  0  0  0  0  0  0
    1.7350   -0.0630    1.2804 H   0  0  0  0  0  0  0  0  0  0  0  0
    0.1838   -0.2350    2.1361 H   0  0  0  0  0  0  0  0  0  0  0  0
   -0.1210   -2.4817    1.1320 H   0  0  0  0  0  0  0  0  0  0  0  0
    1.4302   -2.3096    0.2763 H   0  0  0  0  0  0  0  0  0  0  0  0
    2.6049   -2.0927    2.4492 H   0  0  0  0  0  0  0  0  0  0  0  0
    1.0536   -2.2647    3.3050 H   0  0  0  0  0  0  0  0  0  0  0  0
    0.8175   -4.4173    2.3065 H   0  0  0  0  0  0  0  0  0  0  0  0
    2.2534   -4.2581    1.5144 H   0  0  0  0  0  0  0  0  0  0  0  0
   -1.7940   -0.7522    0.8520 H   0  0  0  0  0  0  0  0  0  0  0  0
   -0.4618    0.0578   -2.3816 H   0  0  0  0  0  0  0  0  0  0  0  0
   -3.9875   -1.0072   -4.5450 H   0  0  0  0  0  0  0  0  0  0  0  0
   -5.6815   -2.1913    0.9274 H   0  0  0  0  0  0  0  0  0  0  0  0
   -6.9813   -2.4594   -1.1437 H   0  0  0  0  0  0  0  0  0  0  0  0
   -5.9791   -1.8543   -3.3088 H   0  0  0  0  0  0  0  0  0  0  0  0
   -2.6033   -1.3036   -6.0646 H   0  0  0  0  0  0  0  0  0  0  0  0
   -3.2092    0.3618   -5.8979 H   0  0  0  0  0  0  0  0  0  0  0  0
   -1.7102    0.0467   -6.8045 H   0  0  0  0  0  0  0  0  0  0  0  0
    2.2246   -4.3369    3.1599 H   0  0  0  0  0  0  0  0  0  0  0  0
  1  2  1  0  0  0  0
  1 21  1  0  0  0  0
  1 22  1  0  0  0  0
  1 23  1  0  0  0  0
  2  3  1  6  0  0  0
  2  4  1  0  0  0  0
  2  8  1  0  0  0  0
  4  5  1  0  0  0  0
  4 24  1  0  0  0  0
  4 25  1  0  0  0  0
  5  6  1  0  0  0  0
  5 26  1  0  0  0  0
  5 27  1  0  0  0  0
  6  7  1  0  0  0  0
  6 28  1  0  0  0  0
  6 29  1  0  0  0  0
  7 30  1  0  0  0  0
  7 31  1  0  0  0  0
  7 41  1  0  0  0  0
  8  9  1  0  0  0  0
  8 32  1  0  0  0  0
  9 14  2  0  0  0  0
  9 10  1  0  0  0  0
 10 11  2  0  0  0  0
 10 33  1  0  0  0  0
 11 12  1  0  0  0  0
 11 19  1  0  0  0  0
 12 13  2  0  0  0  0
 12 34  1  0  0  0  0
 13 18  1  0  0  0  0
 13 14  1  0  0  0  0
 14 15  1  0  0  0  0
 15 16  2  0  0  0  0
 16 17  1  0  0  0  0
 16 35  1  0  0  0  0
 17 18  2  0  0  0  0
 17 36  1  0  0  0  0
 18 37  1  0  0  0  0
 19 20  1  0  0  0  0
 20 38  1  0  0  0  0
 20 39  1  0  0  0  0
 20 40  1  0  0  0  0
M  CHG  1   7   1
M  END
$$$$
