ZINC03833846
 OpenBabel08292219463D

 86 89  0  0  1  0  0  0  0  0999 V2000
    3.6074    2.0185    6.0413 C   0  0  0  0  0  0  0  0  0  0  0  0
    2.1623    2.4418    5.9806 C   0  0  0  0  0  0  0  0  0  0  0  0
    1.5224    2.5719    4.7476 C   0  0  0  0  0  0  0  0  0  0  0  0
    0.1857    2.9703    4.6993 C   0  0  0  0  0  0  0  0  0  0  0  0
   -0.5008    3.2233    5.8694 C   0  0  0  0  0  0  0  0  0  0  0  0
    0.1344    3.0936    7.0905 C   0  0  0  0  0  0  0  0  0  0  0  0
    1.4656    2.7032    7.1482 C   0  0  0  0  0  0  0  0  0  0  0  0
    2.0853    2.5782    8.3513 O   0  0  0  0  0  0  0  0  0  0  0  0
    2.2595    2.2944    3.4962 C   0  0  0  0  0  0  0  0  0  0  0  0
    3.4514    2.0586    3.5325 O   0  0  0  0  0  0  0  0  0  0  0  0
    1.6099    2.3030    2.3154 N   0  0  0  0  0  0  0  0  0  0  0  0
    2.3403    2.0281    1.0755 C   0  0  1  0  0  0  0  0  0  0  0  0
    3.3478    2.4375    1.1489 H   0  0  0  0  0  0  0  0  0  0  0  0
    2.4190    0.5162    0.8545 C   0  0  0  0  0  0  0  0  0  0  0  0
    3.2847   -0.2547    2.2498 S   0  0  0  0  0  0  0  0  0  0  0  0
    3.2929   -1.9709    1.8508 C   0  0  0  0  0  0  0  0  0  0  0  0
    2.7011   -2.4154    0.6745 C   0  0  0  0  0  0  0  0  0  0  0  0
    2.7145   -3.7604    0.3623 C   0  0  0  0  0  0  0  0  0  0  0  0
    3.3055   -4.6662    1.2243 C   0  0  0  0  0  0  0  0  0  0  0  0
    3.8908   -4.2281    2.3983 C   0  0  0  0  0  0  0  0  0  0  0  0
    3.8862   -2.8839    2.7143 C   0  0  0  0  0  0  0  0  0  0  0  0
    1.6101    2.6782   -0.1014 C   0  0  1  0  0  0  0  0  0  0  0  0
    1.4755    3.7415    0.0972 H   0  0  0  0  0  0  0  0  0  0  0  0
    2.4362    2.4980   -1.3765 C   0  0  0  0  0  0  0  0  0  0  0  0
    1.8266    4.6732   -2.2471 C   0  0  0  0  0  0  0  0  0  0  0  0
    1.2880    5.3991   -3.4839 C   0  0  1  0  0  0  0  0  0  0  0  0
    1.3022    6.4753   -3.3116 H   0  0  0  0  0  0  0  0  0  0  0  0
    2.1625    5.0500   -4.6905 C   0  0  0  0  0  0  0  0  0  0  0  0
    1.6168    5.7465   -5.9381 C   0  0  0  0  0  0  0  0  0  0  0  0
    0.1849    5.2740   -6.1992 C   0  0  0  0  0  0  0  0  0  0  0  0
   -0.6926    5.6270   -4.9967 C   0  0  0  0  0  0  0  0  0  0  0  0
   -0.1487    4.9395   -3.7448 C   0  0  1  0  0  0  0  0  0  0  0  0
   -0.7729    5.1977   -2.8893 H   0  0  0  0  0  0  0  0  0  0  0  0
   -0.1630    3.4217   -3.9413 C   0  0  0  0  0  0  0  0  0  0  0  0
    0.4238    2.7478   -2.6985 C   0  0  1  0  0  0  0  0  0  0  0  0
   -0.1871    2.9933   -1.8298 H   0  0  0  0  0  0  0  0  0  0  0  0
    0.4364    1.2539   -2.8964 C   0  0  0  0  0  0  0  0  0  0  0  0
    1.4619    0.6938   -3.2211 O   0  0  0  0  0  0  0  0  0  0  0  0
   -0.6921    0.5403   -2.7127 N   0  0  0  0  0  0  0  0  0  0  0  0
   -0.6799   -0.9120   -2.9051 C   0  0  0  0  0  0  0  0  0  0  0  0
    0.3204   -1.5464   -1.9367 C   0  0  0  0  0  0  0  0  0  0  0  0
   -2.0772   -1.4739   -2.6356 C   0  0  0  0  0  0  0  0  0  0  0  0
   -0.2702   -1.2323   -4.3440 C   0  0  0  0  0  0  0  0  0  0  0  0
    0.3329    2.0598   -0.2699 O   0  0  0  0  0  0  0  0  0  0  0  0
    4.2473    2.8882    5.8918 H   0  0  0  0  0  0  0  0  0  0  0  0
    3.8160    1.5771    7.0158 H   0  0  0  0  0  0  0  0  0  0  0  0
    3.8040    1.2842    5.2602 H   0  0  0  0  0  0  0  0  0  0  0  0
   -0.3123    3.0766    3.7469 H   0  0  0  0  0  0  0  0  0  0  0  0
   -1.5362    3.5279    5.8310 H   0  0  0  0  0  0  0  0  0  0  0  0
   -0.4067    3.2969    8.0027 H   0  0  0  0  0  0  0  0  0  0  0  0
    2.5142    3.3884    8.6589 H   0  0  0  0  0  0  0  0  0  0  0  0
    0.6588    2.4911    2.2864 H   0  0  0  0  0  0  0  0  0  0  0  0
    1.4114    0.1068    0.7811 H   0  0  0  0  0  0  0  0  0  0  0  0
    2.9624    0.3116   -0.0680 H   0  0  0  0  0  0  0  0  0  0  0  0
    2.2352   -1.7091    0.0033 H   0  0  0  0  0  0  0  0  0  0  0  0
    2.2587   -4.1060   -0.5537 H   0  0  0  0  0  0  0  0  0  0  0  0
    3.3103   -5.7181    0.9799 H   0  0  0  0  0  0  0  0  0  0  0  0
    4.3517   -4.9382    3.0689 H   0  0  0  0  0  0  0  0  0  0  0  0
    4.3435   -2.5426    3.6312 H   0  0  0  0  0  0  0  0  0  0  0  0
    3.4404    2.8910   -1.2174 H   0  0  0  0  0  0  0  0  0  0  0  0
    2.4958    1.4382   -1.6241 H   0  0  0  0  0  0  0  0  0  0  0  0
    1.2061    4.9154   -1.3843 H   0  0  0  0  0  0  0  0  0  0  0  0
    2.8525    4.9893   -2.0579 H   0  0  0  0  0  0  0  0  0  0  0  0
    3.1841    5.3826   -4.5067 H   0  0  0  0  0  0  0  0  0  0  0  0
    2.1546    3.9710   -4.8444 H   0  0  0  0  0  0  0  0  0  0  0  0
    2.2430    5.4996   -6.7954 H   0  0  0  0  0  0  0  0  0  0  0  0
    1.6210    6.8255   -5.7835 H   0  0  0  0  0  0  0  0  0  0  0  0
    0.1797    4.1943   -6.3487 H   0  0  0  0  0  0  0  0  0  0  0  0
   -0.2039    5.7668   -7.0903 H   0  0  0  0  0  0  0  0  0  0  0  0
   -1.7130    5.2909   -5.1810 H   0  0  0  0  0  0  0  0  0  0  0  0
   -0.6874    6.7070   -4.8489 H   0  0  0  0  0  0  0  0  0  0  0  0
   -1.1885    3.0833   -4.0891 H   0  0  0  0  0  0  0  0  0  0  0  0
    0.4357    3.1619   -4.8143 H   0  0  0  0  0  0  0  0  0  0  0  0
   -1.5123    0.9882   -2.4530 H   0  0  0  0  0  0  0  0  0  0  0  0
    0.0286   -1.3181   -0.9116 H   0  0  0  0  0  0  0  0  0  0  0  0
    0.3295   -2.6269   -2.0799 H   0  0  0  0  0  0  0  0  0  0  0  0
    1.3159   -1.1460   -2.1287 H   0  0  0  0  0  0  0  0  0  0  0  0
   -2.7899   -1.0219   -3.3255 H   0  0  0  0  0  0  0  0  0  0  0  0
   -2.0681   -2.5544   -2.7788 H   0  0  0  0  0  0  0  0  0  0  0  0
   -2.3691   -1.2457   -1.6105 H   0  0  0  0  0  0  0  0  0  0  0  0
    0.7253   -0.8320   -4.5360 H   0  0  0  0  0  0  0  0  0  0  0  0
   -0.2611   -2.3129   -4.4872 H   0  0  0  0  0  0  0  0  0  0  0  0
   -0.9828   -0.7804   -5.0339 H   0  0  0  0  0  0  0  0  0  0  0  0
    0.3762    1.1107   -0.4501 H   0  0  0  0  0  0  0  0  0  0  0  0
    1.8128    3.2174   -2.5062 N   0  3  2  0  0  0  0  0  0  0  0  0
    2.3499    3.0263   -3.3602 H   0  0  0  0  0  0  0  0  0  0  0  0
  1  2  1  0  0  0  0
  1 45  1  0  0  0  0
  1 46  1  0  0  0  0
  1 47  1  0  0  0  0
  2  7  2  0  0  0  0
  2  3  1  0  0  0  0
  3  4  2  0  0  0  0
  3  9  1  0  0  0  0
  4  5  1  0  0  0  0
  4 48  1  0  0  0  0
  5  6  2  0  0  0  0
  5 49  1  0  0  0  0
  6  7  1  0  0  0  0
  6 50  1  0  0  0  0
  7  8  1  0  0  0  0
  8 51  1  0  0  0  0
  9 10  2  0  0  0  0
  9 11  1  0  0  0  0
 11 12  1  0  0  0  0
 11 52  1  0  0  0  0
 12 13  1  1  0  0  0
 12 14  1  0  0  0  0
 12 22  1  0  0  0  0
 14 15  1  0  0  0  0
 14 53  1  0  0  0  0
 14 54  1  0  0  0  0
 15 16  1  0  0  0  0
 16 21  2  0  0  0  0
 16 17  1  0  0  0  0
 17 18  2  0  0  0  0
 17 55  1  0  0  0  0
 18 19  1  0  0  0  0
 18 56  1  0  0  0  0
 19 20  2  0  0  0  0
 19 57  1  0  0  0  0
 20 21  1  0  0  0  0
 20 58  1  0  0  0  0
 21 59  1  0  0  0  0
 22 23  1  1  0  0  0
 22 24  1  0  0  0  0
 22 44  1  0  0  0  0
 24 60  1  0  0  0  0
 24 61  1  0  0  0  0
 24 85  1  0  0  0  0
 25 26  1  0  0  0  0
 25 62  1  0  0  0  0
 25 63  1  0  0  0  0
 25 85  1  0  0  0  0
 26 27  1  1  0  0  0
 26 32  1  0  0  0  0
 26 28  1  0  0  0  0
 28 29  1  0  0  0  0
 28 64  1  0  0  0  0
 28 65  1  0  0  0  0
 29 30  1  0  0  0  0
 29 66  1  0  0  0  0
 29 67  1  0  0  0  0
 30 31  1  0  0  0  0
 30 68  1  0  0  0  0
 30 69  1  0  0  0  0
 31 32  1  0  0  0  0
 31 70  1  0  0  0  0
 31 71  1  0  0  0  0
 32 33  1  1  0  0  0
 32 34  1  0  0  0  0
 34 35  1  0  0  0  0
 34 72  1  0  0  0  0
 34 73  1  0  0  0  0
 35 36  1  1  0  0  0
 35 37  1  0  0  0  0
 35 85  1  0  0  0  0
 37 38  2  0  0  0  0
 37 39  1  0  0  0  0
 39 40  1  0  0  0  0
 39 74  1  0  0  0  0
 40 41  1  0  0  0  0
 40 42  1  0  0  0  0
 40 43  1  0  0  0  0
 41 75  1  0  0  0  0
 41 76  1  0  0  0  0
 41 77  1  0  0  0  0
 42 78  1  0  0  0  0
 42 79  1  0  0  0  0
 42 80  1  0  0  0  0
 43 81  1  0  0  0  0
 43 82  1  0  0  0  0
 43 83  1  0  0  0  0
 44 84  1  0  0  0  0
 85 86  1  6  0  0  0
M  CHG  1  85   1
M  END
$$$$
