ZINC03831165
 OpenBabel08292219463D

 50 51  0  0  1  0  0  0  0  0999 V2000
   -0.0187    1.5258    0.0104 C   0  0  0  0  0  0  0  0  0  0  0  0
    0.0021   -0.0041    0.0020 C   0  0  0  0  0  0  0  0  0  0  0  0
    0.7421   -0.5109    1.2415 C   0  0  0  0  0  0  0  0  0  0  0  0
   -1.4333   -0.5336    0.0129 C   0  0  0  0  0  0  0  0  0  0  0  0
    0.6897   -0.4778   -1.2066 N   0  3  0  0  0  0  0  0  0  0  0  0
    2.0678    0.0307   -1.2170 C   0  0  0  0  0  0  0  0  0  0  0  0
    2.7840   -0.4628   -2.4758 C   0  0  1  0  0  0  0  0  0  0  0  0
    2.2568   -0.1017   -3.3589 H   0  0  0  0  0  0  0  0  0  0  0  0
    4.2193    0.0668   -2.4867 C   0  0  0  0  0  0  0  0  0  0  0  0
    4.8516   -0.2959   -3.7158 O   0  0  0  0  0  0  0  0  0  0  0  0
    6.1401    0.1007   -3.8874 C   0  0  0  0  0  0  0  0  0  0  0  0
    6.7779    0.8176   -2.8890 C   0  0  0  0  0  0  0  0  0  0  0  0
    8.0873    1.2205   -3.0653 C   0  0  0  0  0  0  0  0  0  0  0  0
    8.7499    0.9089   -4.2351 C   0  0  0  0  0  0  0  0  0  0  0  0
    8.1138    0.1912   -5.2400 C   0  0  0  0  0  0  0  0  0  0  0  0
    6.8128   -0.2217   -5.0645 C   0  0  0  0  0  0  0  0  0  0  0  0
    6.0685   -1.0213   -6.1015 C   0  0  0  0  0  0  0  0  0  0  0  0
    6.7614   -0.9180   -7.4588 C   0  0  1  0  0  0  0  0  0  0  0  0
    6.6595    0.0955   -7.8467 H   0  0  0  0  0  0  0  0  0  0  0  0
    8.2459   -1.2521   -7.2708 C   0  0  1  0  0  0  0  0  0  0  0  0
    8.7260   -1.3510   -8.2444 H   0  0  0  0  0  0  0  0  0  0  0  0
    8.8963   -0.1055   -6.4925 C   0  0  0  0  0  0  0  0  0  0  0  0
    8.3756   -2.4755   -6.5439 O   0  0  0  0  0  0  0  0  0  0  0  0
    6.1707   -1.8446   -8.3723 O   0  0  0  0  0  0  0  0  0  0  0  0
    2.8033   -1.8916   -2.4837 O   0  0  0  0  0  0  0  0  0  0  0  0
    1.0039    1.9031    0.0027 H   0  0  0  0  0  0  0  0  0  0  0  0
   -0.5459    1.8868   -0.8726 H   0  0  0  0  0  0  0  0  0  0  0  0
   -0.5289    1.8773    0.9072 H   0  0  0  0  0  0  0  0  0  0  0  0
    0.2319   -0.1594    2.1383 H   0  0  0  0  0  0  0  0  0  0  0  0
    0.7568   -1.6008    1.2356 H   0  0  0  0  0  0  0  0  0  0  0  0
    1.7647   -0.1336    1.2338 H   0  0  0  0  0  0  0  0  0  0  0  0
   -1.9605   -0.1726   -0.8702 H   0  0  0  0  0  0  0  0  0  0  0  0
   -1.4185   -1.6235    0.0069 H   0  0  0  0  0  0  0  0  0  0  0  0
   -1.9435   -0.1821    0.9097 H   0  0  0  0  0  0  0  0  0  0  0  0
    0.7033   -1.4867   -1.2121 H   0  0  0  0  0  0  0  0  0  0  0  0
    2.0530    1.1205   -1.2110 H   0  0  0  0  0  0  0  0  0  0  0  0
    2.5950   -0.3304   -0.3340 H   0  0  0  0  0  0  0  0  0  0  0  0
    4.2068    1.1525   -2.3912 H   0  0  0  0  0  0  0  0  0  0  0  0
    4.7722   -0.3649   -1.6524 H   0  0  0  0  0  0  0  0  0  0  0  0
    6.2537    1.0610   -1.9766 H   0  0  0  0  0  0  0  0  0  0  0  0
    8.5912    1.7782   -2.2898 H   0  0  0  0  0  0  0  0  0  0  0  0
    9.7732    1.2266   -4.3708 H   0  0  0  0  0  0  0  0  0  0  0  0
    6.0350   -2.0664   -5.7937 H   0  0  0  0  0  0  0  0  0  0  0  0
    5.0511   -0.6398   -6.1875 H   0  0  0  0  0  0  0  0  0  0  0  0
    8.9337    0.7895   -7.1135 H   0  0  0  0  0  0  0  0  0  0  0  0
    9.9111   -0.3969   -6.2216 H   0  0  0  0  0  0  0  0  0  0  0  0
    9.2910   -2.7462   -6.3895 H   0  0  0  0  0  0  0  0  0  0  0  0
    5.2268   -1.6998   -8.5242 H   0  0  0  0  0  0  0  0  0  0  0  0
    3.2576   -2.2830   -1.7250 H   0  0  0  0  0  0  0  0  0  0  0  0
    0.2017   -0.1436   -2.0240 H   0  0  0  0  0  0  0  0  0  0  0  0
  1  2  1  0  0  0  0
  1 26  1  0  0  0  0
  1 27  1  0  0  0  0
  1 28  1  0  0  0  0
  2  3  1  0  0  0  0
  2  4  1  0  0  0  0
  2  5  1  0  0  0  0
  3 29  1  0  0  0  0
  3 30  1  0  0  0  0
  3 31  1  0  0  0  0
  4 32  1  0  0  0  0
  4 33  1  0  0  0  0
  4 34  1  0  0  0  0
  5  6  1  0  0  0  0
  5 35  1  0  0  0  0
  5 50  1  0  0  0  0
  6  7  1  0  0  0  0
  6 36  1  0  0  0  0
  6 37  1  0  0  0  0
  7  8  1  6  0  0  0
  7  9  1  0  0  0  0
  7 25  1  0  0  0  0
  9 10  1  0  0  0  0
  9 38  1  0  0  0  0
  9 39  1  0  0  0  0
 10 11  1  0  0  0  0
 11 16  2  0  0  0  0
 11 12  1  0  0  0  0
 12 13  2  0  0  0  0
 12 40  1  0  0  0  0
 13 14  1  0  0  0  0
 13 41  1  0  0  0  0
 14 15  2  0  0  0  0
 14 42  1  0  0  0  0
 15 22  1  0  0  0  0
 15 16  1  0  0  0  0
 16 17  1  0  0  0  0
 17 18  1  0  0  0  0
 17 43  1  0  0  0  0
 17 44  1  0  0  0  0
 18 19  1  6  0  0  0
 18 20  1  0  0  0  0
 18 24  1  0  0  0  0
 20 21  1  6  0  0  0
 20 22  1  0  0  0  0
 20 23  1  0  0  0  0
 22 45  1  0  0  0  0
 22 46  1  0  0  0  0
 23 47  1  0  0  0  0
 24 48  1  0  0  0  0
 25 49  1  0  0  0  0
M  CHG  1   5   1
M  END
$$$$
