ZINC13831144
 OpenBabel08292219463D

 25 27  0  0  0  0  0  0  0  0999 V2000
   -0.0184    1.5028    0.0103 C   0  0  0  0  0  0  0  0  0  0  0  0
    0.0021   -0.0041    0.0020 C   0  0  0  0  0  0  0  0  0  0  0  0
    0.0058   -0.6845   -1.1797 C   0  0  0  0  0  0  0  0  0  0  0  0
    0.0249   -2.0857   -1.1705 C   0  0  0  0  0  0  0  0  0  0  0  0
    0.0390   -2.7562    0.0039 C   0  0  0  0  0  0  0  0  0  0  0  0
    0.0354   -2.0853    1.1892 N   0  0  0  0  0  0  0  0  0  0  0  0
    0.0233   -0.7187    1.2126 C   0  0  0  0  0  0  0  0  0  0  0  0
    0.0251   -0.0493    2.3662 N   0  0  0  0  0  4  0  0  0  0  0  0
    0.0450   -0.6734    3.5285 C   0  0  0  0  0  0  0  0  0  0  0  0
    0.0644   -2.0698    3.5680 C   0  0  0  0  0  0  0  0  0  0  0  0
    0.0498   -2.7808    2.3468 C   0  0  0  0  0  0  0  0  0  0  0  0
    0.0660   -4.0001    2.3383 O   0  0  0  0  0  0  0  0  0  0  0  0
    0.0868   -2.7866    4.8566 C   0  0  0  0  0  0  0  0  0  0  0  0
    0.1125   -4.1107    5.0355 N   0  0  0  0  0  2  0  0  0  0  0  0
    0.1256   -4.3290    6.3060 N   0  0  0  0  0  0  0  0  0  0  0  0
    0.1094   -3.2047    6.9317 N   0  0  0  0  0  0  0  0  0  0  0  0
    0.0914   -2.2404    6.0762 N   0  0  0  0  0  0  0  0  0  0  0  0
    1.0042    1.8801    0.0026 H   0  0  0  0  0  0  0  0  0  0  0  0
   -0.5455    1.8639   -0.8728 H   0  0  0  0  0  0  0  0  0  0  0  0
   -0.5286    1.8543    0.9071 H   0  0  0  0  0  0  0  0  0  0  0  0
   -0.0062   -0.1471   -2.1164 H   0  0  0  0  0  0  0  0  0  0  0  0
    0.0279   -2.6309   -2.1027 H   0  0  0  0  0  0  0  0  0  0  0  0
    0.0530   -3.8361    0.0019 H   0  0  0  0  0  0  0  0  0  0  0  0
    0.0466   -0.1060    4.4475 H   0  0  0  0  0  0  0  0  0  0  0  0
    0.0117    0.9205    2.3503 H   0  0  0  0  0  0  0  0  0  0  0  0
  1  2  1  0  0  0  0
  1 18  1  0  0  0  0
  1 19  1  0  0  0  0
  1 20  1  0  0  0  0
  2  7  1  0  0  0  0
  2  3  2  0  0  0  0
  3  4  1  0  0  0  0
  3 21  1  0  0  0  0
  4  5  2  0  0  0  0
  4 22  1  0  0  0  0
  5  6  1  0  0  0  0
  5 23  1  0  0  0  0
  6 11  1  0  0  0  0
  6  7  1  0  0  0  0
  7  8  2  0  0  0  0
  8  9  1  0  0  0  0
  8 25  1  0  0  0  0
  9 10  2  0  0  0  0
  9 24  1  0  0  0  0
 10 11  1  0  0  0  0
 10 13  1  0  0  0  0
 11 12  2  0  0  0  0
 13 17  2  0  0  0  0
 13 14  1  0  0  0  0
 14 15  1  0  0  0  0
 15 16  2  0  0  0  0
 16 17  1  0  0  0  0
M  END
$$$$
