ZINC00538483
 OpenBabel08292219463D

 49 52  0  0  0  0  0  0  0  0999 V2000
   -0.0524    1.3546    0.0642 C   0  0  0  0  0  0  0  0  0  0  0  0
    1.1561    2.0811    0.0666 C   0  0  0  0  0  0  0  0  0  0  0  0
    2.3389    1.4419    0.0485 C   0  0  0  0  0  0  0  0  0  0  0  0
    2.3938    0.0686    0.0272 N   0  0  0  0  0  0  0  0  0  0  0  0
    1.2247   -0.6695    0.0248 C   0  0  0  0  0  0  0  0  0  0  0  0
   -0.0252   -0.0002    0.0438 C   0  0  0  0  0  0  0  0  0  0  0  0
    1.5386   -1.9439    0.0030 N   0  0  0  0  0  0  0  0  0  0  0  0
    2.9367   -2.0428   -0.0090 N   0  0  0  0  0  0  0  0  0  0  0  0
    3.4339   -0.7890    0.0063 C   0  0  0  0  0  0  0  0  0  0  0  0
    4.6143   -0.4852    0.0017 O   0  0  0  0  0  0  0  0  0  0  0  0
    3.7164   -3.2828   -0.0332 C   0  0  0  0  0  0  0  0  0  0  0  0
    3.9982   -3.7362    1.4006 C   0  0  0  0  0  0  0  0  0  0  0  0
    4.8125   -5.0312    1.3753 C   0  0  0  0  0  0  0  0  0  0  0  0
    5.0831   -5.4665    2.7520 N   0  3  0  0  0  0  0  0  0  0  0  0
    5.9344   -4.4734    3.4191 C   0  0  0  0  0  0  0  0  0  0  0  0
    6.1230   -4.8677    4.8876 C   0  0  0  0  0  0  0  0  0  0  0  0
    6.6412   -6.2436    4.9382 N   0  0  0  0  0  0  0  0  0  0  0  0
    5.9397   -7.2776    4.1617 C   0  0  0  0  0  0  0  0  0  0  0  0
    5.7598   -6.7694    2.7274 C   0  0  0  0  0  0  0  0  0  0  0  0
    7.7676   -6.5592    5.7013 C   0  0  0  0  0  0  0  0  0  0  0  0
    8.4825   -5.5515    6.3369 C   0  0  0  0  0  0  0  0  0  0  0  0
    9.5955   -5.8662    7.0912 C   0  0  0  0  0  0  0  0  0  0  0  0
    9.9997   -7.1830    7.2145 C   0  0  0  0  0  0  0  0  0  0  0  0
    9.2903   -8.1895    6.5831 C   0  0  0  0  0  0  0  0  0  0  0  0
    8.1719   -7.8813    5.8312 C   0  0  0  0  0  0  0  0  0  0  0  0
    9.8018   -9.8410    6.7402 Cl  0  0  0  0  0  0  0  0  0  0  0  0
   -0.9976    1.8767    0.0830 H   0  0  0  0  0  0  0  0  0  0  0  0
    1.1314    3.1607    0.0828 H   0  0  0  0  0  0  0  0  0  0  0  0
    3.2552    2.0135    0.0502 H   0  0  0  0  0  0  0  0  0  0  0  0
   -0.9461   -0.5643    0.0422 H   0  0  0  0  0  0  0  0  0  0  0  0
    3.1527   -4.0563   -0.5547 H   0  0  0  0  0  0  0  0  0  0  0  0
    4.6595   -3.1088   -0.5513 H   0  0  0  0  0  0  0  0  0  0  0  0
    4.5619   -2.9626    1.9221 H   0  0  0  0  0  0  0  0  0  0  0  0
    3.0551   -3.9101    1.9187 H   0  0  0  0  0  0  0  0  0  0  0  0
    4.2488   -5.8047    0.8538 H   0  0  0  0  0  0  0  0  0  0  0  0
    5.7557   -4.8573    0.8572 H   0  0  0  0  0  0  0  0  0  0  0  0
    6.9054   -4.4365    2.9251 H   0  0  0  0  0  0  0  0  0  0  0  0
    5.4610   -3.4931    3.3639 H   0  0  0  0  0  0  0  0  0  0  0  0
    6.8346   -4.1907    5.3602 H   0  0  0  0  0  0  0  0  0  0  0  0
    5.1655   -4.8177    5.4062 H   0  0  0  0  0  0  0  0  0  0  0  0
    6.5302   -8.1938    4.1543 H   0  0  0  0  0  0  0  0  0  0  0  0
    4.9637   -7.4709    4.6069 H   0  0  0  0  0  0  0  0  0  0  0  0
    5.1577   -7.4811    2.1625 H   0  0  0  0  0  0  0  0  0  0  0  0
    6.7360   -6.6631    2.2543 H   0  0  0  0  0  0  0  0  0  0  0  0
    8.1682   -4.5227    6.2407 H   0  0  0  0  0  0  0  0  0  0  0  0
   10.1513   -5.0830    7.5853 H   0  0  0  0  0  0  0  0  0  0  0  0
   10.8710   -7.4262    7.8045 H   0  0  0  0  0  0  0  0  0  0  0  0
    7.6158   -8.6674    5.3421 H   0  0  0  0  0  0  0  0  0  0  0  0
    4.2120   -5.5508    3.2541 H   0  0  0  0  0  0  0  0  0  0  0  0
  1  6  2  0  0  0  0
  1  2  1  0  0  0  0
  1 27  1  0  0  0  0
  2  3  2  0  0  0  0
  2 28  1  0  0  0  0
  3  4  1  0  0  0  0
  3 29  1  0  0  0  0
  4  9  1  0  0  0  0
  4  5  1  0  0  0  0
  5  6  1  0  0  0  0
  5  7  2  0  0  0  0
  6 30  1  0  0  0  0
  7  8  1  0  0  0  0
  8  9  1  0  0  0  0
  8 11  1  0  0  0  0
  9 10  2  0  0  0  0
 11 12  1  0  0  0  0
 11 31  1  0  0  0  0
 11 32  1  0  0  0  0
 12 13  1  0  0  0  0
 12 33  1  0  0  0  0
 12 34  1  0  0  0  0
 13 14  1  0  0  0  0
 13 35  1  0  0  0  0
 13 36  1  0  0  0  0
 14 19  1  0  0  0  0
 14 15  1  0  0  0  0
 14 49  1  0  0  0  0
 15 16  1  0  0  0  0
 15 37  1  0  0  0  0
 15 38  1  0  0  0  0
 16 17  1  0  0  0  0
 16 39  1  0  0  0  0
 16 40  1  0  0  0  0
 17 18  1  0  0  0  0
 17 20  1  0  0  0  0
 18 19  1  0  0  0  0
 18 41  1  0  0  0  0
 18 42  1  0  0  0  0
 19 43  1  0  0  0  0
 19 44  1  0  0  0  0
 20 25  2  0  0  0  0
 20 21  1  0  0  0  0
 21 22  2  0  0  0  0
 21 45  1  0  0  0  0
 22 23  1  0  0  0  0
 22 46  1  0  0  0  0
 23 24  2  0  0  0  0
 23 47  1  0  0  0  0
 24 25  1  0  0  0  0
 24 26  1  0  0  0  0
 25 48  1  0  0  0  0
M  CHG  1  14   1
M  END
$$$$
