ZINC01530755
 OpenBabel08292219463D

 83 84  0  0  0  0  0  0  0  0999 V2000
    4.2223   -1.7753    1.6676 C   0  0  0  0  0  0  0  0  0  0  0  0
    5.3579   -2.7534    1.3600 C   0  0  0  0  0  0  0  0  0  0  0  0
    6.5866   -2.3873    2.1950 C   0  0  0  0  0  0  0  0  0  0  0  0
    4.9128   -4.1762    1.7044 C   0  0  0  0  0  0  0  0  0  0  0  0
    5.7046   -2.6761   -0.1045 C   0  0  0  0  0  0  0  0  0  0  0  0
    4.9482   -1.8914   -0.9524 C   0  0  0  0  0  0  0  0  0  0  0  0
    5.2680   -1.8204   -2.3024 C   0  0  0  0  0  0  0  0  0  0  0  0
    6.3487   -2.5391   -2.7979 C   0  0  0  0  0  0  0  0  0  0  0  0
    7.1038   -3.3231   -1.9482 C   0  0  0  0  0  0  0  0  0  0  0  0
    6.7869   -3.3888   -0.5993 C   0  0  0  0  0  0  0  0  0  0  0  0
    7.5346   -4.1570    0.2377 O   0  0  0  0  0  0  0  0  0  0  0  0
    8.2762   -4.1028   -2.4854 C   0  0  0  0  0  0  0  0  0  0  0  0
    8.4390   -3.8146   -3.9791 C   0  0  0  0  0  0  0  0  0  0  0  0
    9.5482   -3.6866   -1.7440 C   0  0  0  0  0  0  0  0  0  0  0  0
    8.0316   -5.5989   -2.2784 C   0  0  0  0  0  0  0  0  0  0  0  0
    4.3033   -0.8200   -3.3856 S   0  0  0  0  0  0  0  0  0  0  0  0
    5.0897   -1.0423   -5.0051 C   0  0  0  0  0  0  0  0  0  0  0  0
    4.2791   -0.3027   -6.0714 C   0  0  0  0  0  0  0  0  0  0  0  0
    6.5115   -0.4788   -4.9633 C   0  0  0  0  0  0  0  0  0  0  0  0
    5.1512   -2.8094   -5.4100 S   0  0  0  0  0  0  0  0  0  0  0  0
    3.4812   -3.3445   -5.2383 C   0  0  0  0  0  0  0  0  0  0  0  0
    2.4890   -2.4304   -4.9067 C   0  0  0  0  0  0  0  0  0  0  0  0
    1.1806   -2.8508   -4.7724 C   0  0  0  0  0  0  0  0  0  0  0  0
    0.8567   -4.1853   -4.9685 C   0  0  0  0  0  0  0  0  0  0  0  0
    1.8466   -5.0990   -5.2992 C   0  0  0  0  0  0  0  0  0  0  0  0
    3.1548   -4.6796   -5.4401 C   0  0  0  0  0  0  0  0  0  0  0  0
    1.4934   -6.5486   -5.5109 C   0  0  0  0  0  0  0  0  0  0  0  0
    2.7718   -7.3563   -5.7438 C   0  0  0  0  0  0  0  0  0  0  0  0
    0.7706   -7.0834   -4.2731 C   0  0  0  0  0  0  0  0  0  0  0  0
    0.5792   -6.6778   -6.7309 C   0  0  0  0  0  0  0  0  0  0  0  0
   -0.4323   -4.5983   -4.8360 O   0  0  0  0  0  0  0  0  0  0  0  0
    0.1041   -1.8596   -4.4122 C   0  0  0  0  0  0  0  0  0  0  0  0
    0.7357   -0.4880   -4.1655 C   0  0  0  0  0  0  0  0  0  0  0  0
   -0.9015   -1.7588   -5.5609 C   0  0  0  0  0  0  0  0  0  0  0  0
   -0.6147   -2.3255   -3.1445 C   0  0  0  0  0  0  0  0  0  0  0  0
    4.5394   -0.7617    1.4222 H   0  0  0  0  0  0  0  0  0  0  0  0
    3.3470   -2.0361    1.0727 H   0  0  0  0  0  0  0  0  0  0  0  0
    3.9716   -1.8312    2.7268 H   0  0  0  0  0  0  0  0  0  0  0  0
    6.3358   -2.4431    3.2543 H   0  0  0  0  0  0  0  0  0  0  0  0
    7.3956   -3.0841    1.9759 H   0  0  0  0  0  0  0  0  0  0  0  0
    6.9037   -1.3737    1.9496 H   0  0  0  0  0  0  0  0  0  0  0  0
    4.0586   -4.4496    1.0849 H   0  0  0  0  0  0  0  0  0  0  0  0
    5.7335   -4.8688    1.5177 H   0  0  0  0  0  0  0  0  0  0  0  0
    4.6292   -4.2237    2.7557 H   0  0  0  0  0  0  0  0  0  0  0  0
    4.1080   -1.3334   -0.5662 H   0  0  0  0  0  0  0  0  0  0  0  0
    6.5980   -2.4848   -3.8473 H   0  0  0  0  0  0  0  0  0  0  0  0
    7.2385   -5.0755    0.2983 H   0  0  0  0  0  0  0  0  0  0  0  0
    8.5811   -2.7443   -4.1293 H   0  0  0  0  0  0  0  0  0  0  0  0
    9.3064   -4.3533   -4.3607 H   0  0  0  0  0  0  0  0  0  0  0  0
    7.5456   -4.1407   -4.5116 H   0  0  0  0  0  0  0  0  0  0  0  0
    9.4915   -4.0222   -0.7085 H   0  0  0  0  0  0  0  0  0  0  0  0
   10.4144   -4.1400   -2.2260 H   0  0  0  0  0  0  0  0  0  0  0  0
    9.6449   -2.6012   -1.7695 H   0  0  0  0  0  0  0  0  0  0  0  0
    7.1057   -5.8879   -2.7757 H   0  0  0  0  0  0  0  0  0  0  0  0
    8.8624   -6.1646   -2.7000 H   0  0  0  0  0  0  0  0  0  0  0  0
    7.9524   -5.8100   -1.2120 H   0  0  0  0  0  0  0  0  0  0  0  0
    4.1202    0.7287   -5.7566 H   0  0  0  0  0  0  0  0  0  0  0  0
    4.8242   -0.3146   -7.0153 H   0  0  0  0  0  0  0  0  0  0  0  0
    3.3156   -0.7953   -6.2020 H   0  0  0  0  0  0  0  0  0  0  0  0
    7.0459   -0.9038   -4.1136 H   0  0  0  0  0  0  0  0  0  0  0  0
    7.0319   -0.7369   -5.8857 H   0  0  0  0  0  0  0  0  0  0  0  0
    6.4698    0.6055   -4.8609 H   0  0  0  0  0  0  0  0  0  0  0  0
    2.7410   -1.3914   -4.7536 H   0  0  0  0  0  0  0  0  0  0  0  0
    3.9245   -5.3902   -5.7027 H   0  0  0  0  0  0  0  0  0  0  0  0
    3.4231   -7.2642   -4.8746 H   0  0  0  0  0  0  0  0  0  0  0  0
    2.5163   -8.4048   -5.8969 H   0  0  0  0  0  0  0  0  0  0  0  0
    3.2868   -6.9752   -6.6257 H   0  0  0  0  0  0  0  0  0  0  0  0
   -0.1402   -6.5080   -4.1072 H   0  0  0  0  0  0  0  0  0  0  0  0
    0.5151   -8.1320   -4.4262 H   0  0  0  0  0  0  0  0  0  0  0  0
    1.4219   -6.9914   -3.4039 H   0  0  0  0  0  0  0  0  0  0  0  0
    1.0847   -6.2739   -7.6082 H   0  0  0  0  0  0  0  0  0  0  0  0
    0.3438   -7.7287   -6.8989 H   0  0  0  0  0  0  0  0  0  0  0  0
   -0.3422   -6.1228   -6.5549 H   0  0  0  0  0  0  0  0  0  0  0  0
   -0.9336   -4.5943   -5.6629 H   0  0  0  0  0  0  0  0  0  0  0  0
    1.2205   -0.1418   -5.0783 H   0  0  0  0  0  0  0  0  0  0  0  0
   -0.0387    0.2214   -3.8738 H   0  0  0  0  0  0  0  0  0  0  0  0
    1.4752   -0.5666   -3.3686 H   0  0  0  0  0  0  0  0  0  0  0  0
   -1.3555   -2.7347   -5.7330 H   0  0  0  0  0  0  0  0  0  0  0  0
   -1.6770   -1.0377   -5.3027 H   0  0  0  0  0  0  0  0  0  0  0  0
   -0.3883   -1.4322   -6.4654 H   0  0  0  0  0  0  0  0  0  0  0  0
    0.1066   -2.4246   -2.3334 H   0  0  0  0  0  0  0  0  0  0  0  0
   -1.3743   -1.5943   -2.8679 H   0  0  0  0  0  0  0  0  0  0  0  0
   -1.0887   -3.2896   -3.3291 H   0  0  0  0  0  0  0  0  0  0  0  0
  1  2  1  0  0  0  0
  1 36  1  0  0  0  0
  1 37  1  0  0  0  0
  1 38  1  0  0  0  0
  2  3  1  0  0  0  0
  2  4  1  0  0  0  0
  2  5  1  0  0  0  0
  3 39  1  0  0  0  0
  3 40  1  0  0  0  0
  3 41  1  0  0  0  0
  4 42  1  0  0  0  0
  4 43  1  0  0  0  0
  4 44  1  0  0  0  0
  5 10  2  0  0  0  0
  5  6  1  0  0  0  0
  6  7  2  0  0  0  0
  6 45  1  0  0  0  0
  7  8  1  0  0  0  0
  7 16  1  0  0  0  0
  8  9  2  0  0  0  0
  8 46  1  0  0  0  0
  9 10  1  0  0  0  0
  9 12  1  0  0  0  0
 10 11  1  0  0  0  0
 11 47  1  0  0  0  0
 12 13  1  0  0  0  0
 12 14  1  0  0  0  0
 12 15  1  0  0  0  0
 13 48  1  0  0  0  0
 13 49  1  0  0  0  0
 13 50  1  0  0  0  0
 14 51  1  0  0  0  0
 14 52  1  0  0  0  0
 14 53  1  0  0  0  0
 15 54  1  0  0  0  0
 15 55  1  0  0  0  0
 15 56  1  0  0  0  0
 16 17  1  0  0  0  0
 17 18  1  0  0  0  0
 17 19  1  0  0  0  0
 17 20  1  0  0  0  0
 18 57  1  0  0  0  0
 18 58  1  0  0  0  0
 18 59  1  0  0  0  0
 19 60  1  0  0  0  0
 19 61  1  0  0  0  0
 19 62  1  0  0  0  0
 20 21  1  0  0  0  0
 21 26  2  0  0  0  0
 21 22  1  0  0  0  0
 22 23  2  0  0  0  0
 22 63  1  0  0  0  0
 23 24  1  0  0  0  0
 23 32  1  0  0  0  0
 24 25  2  0  0  0  0
 24 31  1  0  0  0  0
 25 26  1  0  0  0  0
 25 27  1  0  0  0  0
 26 64  1  0  0  0  0
 27 28  1  0  0  0  0
 27 29  1  0  0  0  0
 27 30  1  0  0  0  0
 28 65  1  0  0  0  0
 28 66  1  0  0  0  0
 28 67  1  0  0  0  0
 29 68  1  0  0  0  0
 29 69  1  0  0  0  0
 29 70  1  0  0  0  0
 30 71  1  0  0  0  0
 30 72  1  0  0  0  0
 30 73  1  0  0  0  0
 31 74  1  0  0  0  0
 32 33  1  0  0  0  0
 32 34  1  0  0  0  0
 32 35  1  0  0  0  0
 33 75  1  0  0  0  0
 33 76  1  0  0  0  0
 33 77  1  0  0  0  0
 34 78  1  0  0  0  0
 34 79  1  0  0  0  0
 34 80  1  0  0  0  0
 35 81  1  0  0  0  0
 35 82  1  0  0  0  0
 35 83  1  0  0  0  0
M  END
$$$$
