ZINC00537928
 OpenBabel08292219463D

 68 71  0  0  1  0  0  0  0  0999 V2000
    1.0906   -3.4067    2.2671 C   0  0  0  0  0  0  0  0  0  0  0  0
   -0.0148   -3.4375    1.3062 N   0  0  0  0  0  0  0  0  0  0  0  0
   -0.6553   -4.7107    0.9671 C   0  0  0  0  0  0  0  0  0  0  0  0
   -0.4425   -2.2945    0.7342 C   0  0  0  0  0  0  0  0  0  0  0  0
    0.1390   -1.2528    0.9521 O   0  0  0  0  0  0  0  0  0  0  0  0
   -1.6432   -2.3110   -0.1763 C   0  0  0  0  0  0  0  0  0  0  0  0
   -1.2767   -3.0019   -1.4913 C   0  0  0  0  0  0  0  0  0  0  0  0
   -2.4441   -2.8821   -2.4730 C   0  0  0  0  0  0  0  0  0  0  0  0
   -2.1458   -3.6562   -3.6853 N   0  3  2  0  0  0  0  0  0  0  0  0
   -0.9898   -3.0647   -4.3697 C   0  0  0  0  0  0  0  0  0  0  0  0
   -0.6245   -3.9141   -5.5889 C   0  0  0  0  0  0  0  0  0  0  0  0
   -1.8179   -3.9613   -6.5474 C   0  0  2  0  0  0  0  0  0  0  0  0
   -3.0375   -4.5106   -5.8018 C   0  0  0  0  0  0  0  0  0  0  0  0
   -3.3134   -3.6391   -4.5747 C   0  0  0  0  0  0  0  0  0  0  0  0
   -1.4930   -4.8598   -7.7128 C   0  0  0  0  0  0  0  0  0  0  0  0
   -0.6336   -5.9291   -7.5423 C   0  0  0  0  0  0  0  0  0  0  0  0
   -0.3352   -6.7535   -8.6108 C   0  0  0  0  0  0  0  0  0  0  0  0
   -0.8968   -6.5084   -9.8512 C   0  0  0  0  0  0  0  0  0  0  0  0
   -1.7568   -5.4380  -10.0213 C   0  0  0  0  0  0  0  0  0  0  0  0
   -2.0589   -4.6177   -8.9507 C   0  0  0  0  0  0  0  0  0  0  0  0
   -0.5221   -7.5430  -11.1939 Cl  0  0  0  0  0  0  0  0  0  0  0  0
   -2.1016   -2.6438   -7.0224 O   0  0  0  0  0  0  0  0  0  0  0  0
   -2.7679   -3.0617    0.4890 C   0  0  0  0  0  0  0  0  0  0  0  0
   -3.2299   -4.2434   -0.0596 C   0  0  0  0  0  0  0  0  0  0  0  0
   -4.2615   -4.9319    0.5507 C   0  0  0  0  0  0  0  0  0  0  0  0
   -4.8308   -4.4390    1.7099 C   0  0  0  0  0  0  0  0  0  0  0  0
   -4.3682   -3.2578    2.2591 C   0  0  0  0  0  0  0  0  0  0  0  0
   -3.3337   -2.5715    1.6511 C   0  0  0  0  0  0  0  0  0  0  0  0
   -2.0803   -0.8964   -0.4569 C   0  0  0  0  0  0  0  0  0  0  0  0
   -3.3919   -0.5210   -0.2336 C   0  0  0  0  0  0  0  0  0  0  0  0
   -3.7928    0.7766   -0.4910 C   0  0  0  0  0  0  0  0  0  0  0  0
   -2.8821    1.6990   -0.9713 C   0  0  0  0  0  0  0  0  0  0  0  0
   -1.5703    1.3239   -1.1937 C   0  0  0  0  0  0  0  0  0  0  0  0
   -1.1684    0.0274   -0.9322 C   0  0  0  0  0  0  0  0  0  0  0  0
    1.2936   -4.4178    2.6200 H   0  0  0  0  0  0  0  0  0  0  0  0
    1.9811   -3.0049    1.7838 H   0  0  0  0  0  0  0  0  0  0  0  0
    0.8195   -2.7744    3.1126 H   0  0  0  0  0  0  0  0  0  0  0  0
   -1.4651   -4.9084    1.6694 H   0  0  0  0  0  0  0  0  0  0  0  0
   -1.0569   -4.6572   -0.0448 H   0  0  0  0  0  0  0  0  0  0  0  0
    0.0795   -5.5137    1.0244 H   0  0  0  0  0  0  0  0  0  0  0  0
   -0.3933   -2.5265   -1.9176 H   0  0  0  0  0  0  0  0  0  0  0  0
   -1.0673   -4.0548   -1.3025 H   0  0  0  0  0  0  0  0  0  0  0  0
   -3.3508   -3.2697   -2.0084 H   0  0  0  0  0  0  0  0  0  0  0  0
   -2.5905   -1.8349   -2.7375 H   0  0  0  0  0  0  0  0  0  0  0  0
   -1.2376   -2.0537   -4.6928 H   0  0  0  0  0  0  0  0  0  0  0  0
   -0.1422   -3.0289   -3.6852 H   0  0  0  0  0  0  0  0  0  0  0  0
    0.2329   -3.4723   -6.0966 H   0  0  0  0  0  0  0  0  0  0  0  0
   -0.3762   -4.9254   -5.2668 H   0  0  0  0  0  0  0  0  0  0  0  0
   -3.9049   -4.4951   -6.4617 H   0  0  0  0  0  0  0  0  0  0  0  0
   -2.8393   -5.5342   -5.4841 H   0  0  0  0  0  0  0  0  0  0  0  0
   -4.1813   -4.0273   -4.0416 H   0  0  0  0  0  0  0  0  0  0  0  0
   -3.5118   -2.6158   -4.8935 H   0  0  0  0  0  0  0  0  0  0  0  0
   -0.1950   -6.1202   -6.5740 H   0  0  0  0  0  0  0  0  0  0  0  0
    0.3364   -7.5887   -8.4775 H   0  0  0  0  0  0  0  0  0  0  0  0
   -2.1953   -5.2460  -10.9894 H   0  0  0  0  0  0  0  0  0  0  0  0
   -2.7339   -3.7850   -9.0822 H   0  0  0  0  0  0  0  0  0  0  0  0
   -2.8480   -2.5990   -7.6357 H   0  0  0  0  0  0  0  0  0  0  0  0
   -2.7851   -4.6284   -0.9653 H   0  0  0  0  0  0  0  0  0  0  0  0
   -4.6230   -5.8548    0.1216 H   0  0  0  0  0  0  0  0  0  0  0  0
   -5.6373   -4.9766    2.1864 H   0  0  0  0  0  0  0  0  0  0  0  0
   -4.8132   -2.8726    3.1646 H   0  0  0  0  0  0  0  0  0  0  0  0
   -2.9697   -1.6506    2.0822 H   0  0  0  0  0  0  0  0  0  0  0  0
   -4.1034   -1.2417    0.1415 H   0  0  0  0  0  0  0  0  0  0  0  0
   -4.8177    1.0696   -0.3173 H   0  0  0  0  0  0  0  0  0  0  0  0
   -3.1955    2.7127   -1.1730 H   0  0  0  0  0  0  0  0  0  0  0  0
   -0.8589    2.0445   -1.5692 H   0  0  0  0  0  0  0  0  0  0  0  0
   -0.1427   -0.2647   -1.1024 H   0  0  0  0  0  0  0  0  0  0  0  0
   -1.9321   -4.6089   -3.4308 H   0  0  0  0  0  0  0  0  0  0  0  0
  1  2  1  0  0  0  0
  1 35  1  0  0  0  0
  1 36  1  0  0  0  0
  1 37  1  0  0  0  0
  2  3  1  0  0  0  0
  2  4  1  0  0  0  0
  3 38  1  0  0  0  0
  3 39  1  0  0  0  0
  3 40  1  0  0  0  0
  4  5  2  0  0  0  0
  4  6  1  0  0  0  0
  6  7  1  0  0  0  0
  6 23  1  0  0  0  0
  6 29  1  0  0  0  0
  7  8  1  0  0  0  0
  7 41  1  0  0  0  0
  7 42  1  0  0  0  0
  8  9  1  0  0  0  0
  8 43  1  0  0  0  0
  8 44  1  0  0  0  0
  9 14  1  0  0  0  0
  9 10  1  0  0  0  0
  9 68  1  1  0  0  0
 10 11  1  0  0  0  0
 10 45  1  0  0  0  0
 10 46  1  0  0  0  0
 11 12  1  0  0  0  0
 11 47  1  0  0  0  0
 11 48  1  0  0  0  0
 12 13  1  0  0  0  0
 12 15  1  0  0  0  0
 12 22  1  6  0  0  0
 13 14  1  0  0  0  0
 13 49  1  0  0  0  0
 13 50  1  0  0  0  0
 14 51  1  0  0  0  0
 14 52  1  0  0  0  0
 15 20  2  0  0  0  0
 15 16  1  0  0  0  0
 16 17  2  0  0  0  0
 16 53  1  0  0  0  0
 17 18  1  0  0  0  0
 17 54  1  0  0  0  0
 18 19  2  0  0  0  0
 18 21  1  0  0  0  0
 19 20  1  0  0  0  0
 19 55  1  0  0  0  0
 20 56  1  0  0  0  0
 22 57  1  0  0  0  0
 23 28  2  0  0  0  0
 23 24  1  0  0  0  0
 24 25  2  0  0  0  0
 24 58  1  0  0  0  0
 25 26  1  0  0  0  0
 25 59  1  0  0  0  0
 26 27  2  0  0  0  0
 26 60  1  0  0  0  0
 27 28  1  0  0  0  0
 27 61  1  0  0  0  0
 28 62  1  0  0  0  0
 29 34  2  0  0  0  0
 29 30  1  0  0  0  0
 30 31  2  0  0  0  0
 30 63  1  0  0  0  0
 31 32  1  0  0  0  0
 31 64  1  0  0  0  0
 32 33  2  0  0  0  0
 32 65  1  0  0  0  0
 33 34  1  0  0  0  0
 33 66  1  0  0  0  0
 34 67  1  0  0  0  0
M  CHG  1   9   1
M  END
$$$$
