ZINC03812984
 OpenBabel08292219463D

 43 46  0  0  1  0  0  0  0  0999 V2000
   -2.7983    1.5746    2.5117 C   0  0  0  0  0  0  0  0  0  0  0  0
   -2.8836    1.5590    0.0946 C   0  0  0  0  0  0  0  0  0  0  0  0
   -2.1794    1.0201   -1.2058 C   0  0  0  0  0  0  0  0  0  0  0  0
   -0.7576    1.5994   -1.2263 C   0  0  2  0  0  0  0  0  0  0  0  0
   -0.0471    1.1494   -2.4971 C   0  0  0  0  0  0  0  0  0  0  0  0
    1.3879    1.6819   -2.5009 C   0  0  0  0  0  0  0  0  0  0  0  0
    2.1311    1.1511   -1.2732 C   0  0  0  0  0  0  0  0  0  0  0  0
    1.4200    1.6218   -0.0028 C   0  0  0  0  0  0  0  0  0  0  0  0
   -0.0127    1.0858    0.0080 C   0  0  1  0  0  0  0  0  0  0  0  0
    0.0021   -0.0041    0.0020 H   0  0  0  0  0  0  0  0  0  0  0  0
   -0.7376    1.5857    1.2587 C   0  0  1  0  0  0  0  0  0  0  0  0
   -0.2470    1.1454    2.1268 H   0  0  0  0  0  0  0  0  0  0  0  0
   -0.6296    3.0942    1.3559 C   0  0  0  0  0  0  0  0  0  0  0  0
   -0.8275    3.7825    0.0324 C   0  0  0  0  0  0  0  0  0  0  0  0
   -0.8645    3.1019   -1.1649 C   0  0  0  0  0  0  0  0  0  0  0  0
   -1.0059    3.7971   -2.3554 C   0  0  0  0  0  0  0  0  0  0  0  0
   -1.1227    5.1776   -2.3507 C   0  0  0  0  0  0  0  0  0  0  0  0
   -1.1001    5.8624   -1.1445 C   0  0  0  0  0  0  0  0  0  0  0  0
   -0.9542    5.1667    0.0366 C   0  0  0  0  0  0  0  0  0  0  0  0
   -1.2582    5.8565   -3.5201 O   0  0  0  0  0  0  0  0  0  0  0  0
   -2.7772    2.6625    2.5756 H   0  0  0  0  0  0  0  0  0  0  0  0
   -3.8328    1.2313    2.5006 H   0  0  0  0  0  0  0  0  0  0  0  0
   -2.2838    1.1498    3.3736 H   0  0  0  0  0  0  0  0  0  0  0  0
   -3.8977    1.1640    0.1553 H   0  0  0  0  0  0  0  0  0  0  0  0
   -2.9199    2.6475    0.0505 H   0  0  0  0  0  0  0  0  0  0  0  0
   -2.7194    1.3346   -2.0989 H   0  0  0  0  0  0  0  0  0  0  0  0
   -2.1344   -0.0682   -1.1643 H   0  0  0  0  0  0  0  0  0  0  0  0
   -0.5796    1.5352   -3.3664 H   0  0  0  0  0  0  0  0  0  0  0  0
   -0.0300    0.0602   -2.5361 H   0  0  0  0  0  0  0  0  0  0  0  0
    1.3713    2.7714   -2.4727 H   0  0  0  0  0  0  0  0  0  0  0  0
    1.8966    1.3495   -3.4057 H   0  0  0  0  0  0  0  0  0  0  0  0
    3.1542    1.5269   -1.2774 H   0  0  0  0  0  0  0  0  0  0  0  0
    2.1443    0.0615   -1.2996 H   0  0  0  0  0  0  0  0  0  0  0  0
    1.4005    2.7114    0.0201 H   0  0  0  0  0  0  0  0  0  0  0  0
    1.9539    1.2495    0.8716 H   0  0  0  0  0  0  0  0  0  0  0  0
    0.3629    3.3369    1.7355 H   0  0  0  0  0  0  0  0  0  0  0  0
   -1.3763    3.4612    2.0602 H   0  0  0  0  0  0  0  0  0  0  0  0
   -1.0247    3.2597   -3.2921 H   0  0  0  0  0  0  0  0  0  0  0  0
   -1.1963    6.9380   -1.1308 H   0  0  0  0  0  0  0  0  0  0  0  0
   -0.9386    5.7022    0.9743 H   0  0  0  0  0  0  0  0  0  0  0  0
   -0.4191    6.1273   -3.9172 H   0  0  0  0  0  0  0  0  0  0  0  0
   -2.1333    1.0997    1.2905 N   0  3  1  0  0  0  0  0  0  0  0  0
   -2.1230    0.0730    1.2965 H   0  0  0  0  0  0  0  0  0  0  0  0
  1 21  1  0  0  0  0
  1 22  1  0  0  0  0
  1 23  1  0  0  0  0
  1 42  1  0  0  0  0
  2  3  1  0  0  0  0
  2 24  1  0  0  0  0
  2 25  1  0  0  0  0
  2 42  1  0  0  0  0
  3  4  1  0  0  0  0
  3 26  1  0  0  0  0
  3 27  1  0  0  0  0
  4  9  1  0  0  0  0
  4 15  1  1  0  0  0
  4  5  1  0  0  0  0
  5  6  1  0  0  0  0
  5 28  1  0  0  0  0
  5 29  1  0  0  0  0
  6  7  1  0  0  0  0
  6 30  1  0  0  0  0
  6 31  1  0  0  0  0
  7  8  1  0  0  0  0
  7 32  1  0  0  0  0
  7 33  1  0  0  0  0
  8  9  1  0  0  0  0
  8 34  1  0  0  0  0
  8 35  1  0  0  0  0
  9 10  1  6  0  0  0
  9 11  1  0  0  0  0
 11 12  1  1  0  0  0
 11 13  1  0  0  0  0
 11 42  1  0  0  0  0
 13 14  1  0  0  0  0
 13 36  1  0  0  0  0
 13 37  1  0  0  0  0
 14 19  2  0  0  0  0
 14 15  1  0  0  0  0
 15 16  2  0  0  0  0
 16 17  1  0  0  0  0
 16 38  1  0  0  0  0
 17 18  2  0  0  0  0
 17 20  1  0  0  0  0
 18 19  1  0  0  0  0
 18 39  1  0  0  0  0
 19 40  1  0  0  0  0
 20 41  1  0  0  0  0
 42 43  1  1  0  0  0
M  CHG  1  42   1
M  END
$$$$
