ZINC03871923
 OpenBabel08292219463D

 56 59  0  0  1  0  0  0  0  0999 V2000
   -2.9478   -2.2761    0.0747 C   0  0  0  0  0  0  0  0  0  0  0  0
   -2.2317   -1.2602    0.8577 N   0  3  0  0  0  0  0  0  0  0  0  0
   -3.1928   -0.2651    1.3790 C   0  0  0  0  0  0  0  0  0  0  0  0
   -3.5201   -0.7456    2.8148 C   0  0  0  0  0  0  0  0  0  0  0  0
   -2.1441   -1.2859    3.2857 C   0  0  0  0  0  0  0  0  0  0  0  0
   -1.5535   -1.9008    1.9994 C   0  0  0  0  0  0  0  0  0  0  0  0
   -1.2402   -0.5876    0.0077 C   0  0  0  0  0  0  0  0  0  0  0  0
   -1.9103   -0.0871   -1.2459 C   0  0  0  0  0  0  0  0  0  0  0  0
   -1.9358   -0.9316   -2.2666 C   0  0  0  0  0  0  0  0  0  0  0  0
   -2.5773   -0.5855   -3.4684 N   0  0  0  0  0  0  0  0  0  0  0  0
   -2.9800    0.7757   -3.9082 C   0  0  1  0  0  0  0  0  0  0  0  0
   -2.2026    1.3629   -4.3969 H   0  0  0  0  0  0  0  0  0  0  0  0
   -3.9463    0.0804   -4.8430 C   0  0  1  0  0  0  0  0  0  0  0  0
   -3.8783    0.4118   -5.8792 H   0  0  0  0  0  0  0  0  0  0  0  0
   -3.1285   -1.1443   -4.5360 C   0  0  0  0  0  0  0  0  0  0  0  0
   -3.0164   -2.2302   -5.0645 O   0  0  0  0  0  0  0  0  0  0  0  0
   -5.3229    0.0239   -4.3450 N   0  0  0  0  0  0  0  0  0  0  0  0
   -6.3430   -0.1697   -5.2043 C   0  0  0  0  0  0  0  0  0  0  0  0
   -6.1157   -0.3883   -6.3777 O   0  0  0  0  0  0  0  0  0  0  0  0
   -7.7418   -0.1161   -4.7179 C   0  0  0  0  0  0  0  0  0  0  0  0
   -8.7228   -0.4133   -5.5220 N   0  0  0  0  0  0  0  0  0  0  0  0
   -8.4491   -0.8969   -6.8244 O   0  0  0  0  0  0  0  0  0  0  0  0
   -9.6176   -1.1818   -7.5961 C   0  0  0  0  0  0  0  0  0  0  0  0
   -8.0240    0.2747   -3.3200 C   0  0  0  0  0  0  0  0  0  0  0  0
   -9.2950    0.1850   -2.8183 C   0  0  0  0  0  0  0  0  0  0  0  0
   -9.0364    0.7684   -1.1482 S   0  0  0  0  0  0  0  0  0  0  0  0
   -7.2801    1.0703   -1.2831 C   0  0  0  0  0  0  0  0  0  0  0  0
   -7.0440    0.7133   -2.5313 N   0  0  0  0  0  0  0  0  0  0  0  0
   -6.3986    1.5484   -0.3281 N   0  0  0  0  0  0  0  0  0  0  0  0
   -3.7231    1.5826   -2.4490 S   0  0  0  0  0  0  0  0  0  0  0  0
   -2.4683    1.2979   -1.1811 C   0  0  0  0  0  0  0  0  0  0  0  0
   -1.2852   -2.2458   -2.1407 C   0  0  0  0  0  0  0  0  0  0  0  0
   -0.6385   -2.5147   -1.1375 O   0  0  0  0  0  0  0  0  0  0  0  0
   -1.3911   -3.0694   -3.0393 O   0  0  0  0  0  1  0  0  0  0  0  0
   -3.7292   -2.7240    0.6888 H   0  0  0  0  0  0  0  0  0  0  0  0
   -3.3973   -1.8092   -0.8017 H   0  0  0  0  0  0  0  0  0  0  0  0
   -2.2484   -3.0490   -0.2439 H   0  0  0  0  0  0  0  0  0  0  0  0
   -2.7375    0.7250    1.4047 H   0  0  0  0  0  0  0  0  0  0  0  0
   -4.0953   -0.2528    0.7680 H   0  0  0  0  0  0  0  0  0  0  0  0
   -3.8477    0.0854    3.4395 H   0  0  0  0  0  0  0  0  0  0  0  0
   -4.2670   -1.5393    2.8002 H   0  0  0  0  0  0  0  0  0  0  0  0
   -1.5147   -0.4734    3.6487 H   0  0  0  0  0  0  0  0  0  0  0  0
   -2.2720   -2.0486    4.0539 H   0  0  0  0  0  0  0  0  0  0  0  0
   -1.7364   -2.9752    1.9842 H   0  0  0  0  0  0  0  0  0  0  0  0
   -0.4824   -1.7041    1.9524 H   0  0  0  0  0  0  0  0  0  0  0  0
   -0.8082    0.2538    0.5495 H   0  0  0  0  0  0  0  0  0  0  0  0
   -0.4519   -1.2920   -0.2581 H   0  0  0  0  0  0  0  0  0  0  0  0
   -5.5002    0.1260   -3.3968 H   0  0  0  0  0  0  0  0  0  0  0  0
  -10.2095   -0.2734   -7.7082 H   0  0  0  0  0  0  0  0  0  0  0  0
   -9.3231   -1.5472   -8.5799 H   0  0  0  0  0  0  0  0  0  0  0  0
  -10.2114   -1.9422   -7.0890 H   0  0  0  0  0  0  0  0  0  0  0  0
  -10.2035   -0.1464   -3.2991 H   0  0  0  0  0  0  0  0  0  0  0  0
   -6.7030    1.6997    0.5804 H   0  0  0  0  0  0  0  0  0  0  0  0
   -5.4767    1.7319   -0.5676 H   0  0  0  0  0  0  0  0  0  0  0  0
   -2.9089    1.4577   -0.1970 H   0  0  0  0  0  0  0  0  0  0  0  0
   -1.6595    2.0139   -1.3272 H   0  0  0  0  0  0  0  0  0  0  0  0
  1  2  1  0  0  0  0
  1 35  1  0  0  0  0
  1 36  1  0  0  0  0
  1 37  1  0  0  0  0
  2  6  1  0  0  0  0
  2  3  1  0  0  0  0
  2  7  1  0  0  0  0
  3  4  1  0  0  0  0
  3 38  1  0  0  0  0
  3 39  1  0  0  0  0
  4  5  1  0  0  0  0
  4 40  1  0  0  0  0
  4 41  1  0  0  0  0
  5  6  1  0  0  0  0
  5 42  1  0  0  0  0
  5 43  1  0  0  0  0
  6 44  1  0  0  0  0
  6 45  1  0  0  0  0
  7  8  1  0  0  0  0
  7 46  1  0  0  0  0
  7 47  1  0  0  0  0
  8 31  1  0  0  0  0
  8  9  2  0  0  0  0
  9 10  1  0  0  0  0
  9 32  1  0  0  0  0
 10 15  1  0  0  0  0
 10 11  1  0  0  0  0
 11 12  1  6  0  0  0
 11 13  1  0  0  0  0
 11 30  1  0  0  0  0
 13 14  1  6  0  0  0
 13 15  1  0  0  0  0
 13 17  1  0  0  0  0
 15 16  2  0  0  0  0
 17 18  1  0  0  0  0
 17 48  1  0  0  0  0
 18 19  2  0  0  0  0
 18 20  1  0  0  0  0
 20 21  2  0  0  0  0
 20 24  1  0  0  0  0
 21 22  1  0  0  0  0
 22 23  1  0  0  0  0
 23 49  1  0  0  0  0
 23 50  1  0  0  0  0
 23 51  1  0  0  0  0
 24 28  1  0  0  0  0
 24 25  2  0  0  0  0
 25 26  1  0  0  0  0
 25 52  1  0  0  0  0
 26 27  1  0  0  0  0
 27 28  2  0  0  0  0
 27 29  1  0  0  0  0
 29 53  1  0  0  0  0
 29 54  1  0  0  0  0
 30 31  1  0  0  0  0
 31 55  1  0  0  0  0
 31 56  1  0  0  0  0
 32 33  2  0  0  0  0
 32 34  1  0  0  0  0
M  CHG  1   2   1
M  END
$$$$
