ZINC19632644
 OpenBabel08292219463D

 24 24  0  0  1  0  0  0  0  0999 V2000
   -0.0161    1.3371    0.0094 C   0  0  0  0  0  0  0  0  0  0  0  0
    1.2587    1.7711   -0.0004 C   0  0  0  0  0  0  0  0  0  0  0  0
    2.0558    0.6583   -0.0140 N   0  0  0  0  0  0  0  0  0  0  0  0
    1.2397   -0.4176   -0.0120 C   0  0  0  0  0  0  0  0  0  0  0  0
    0.0021   -0.0041    0.0020 N   0  0  0  0  0  4  0  0  0  0  0  0
    3.5206    0.6384   -0.0281 C   0  0  0  0  0  0  0  0  0  0  0  0
    4.0443    0.6237    1.4094 C   0  0  2  0  0  0  0  0  0  0  0  0
    3.5585   -0.5400    2.0814 O   0  0  0  0  0  0  0  0  0  0  0  0
    3.4652    2.1157    2.2823 P   0  0  0  0  0  0  0  0  0  0  0  0
    3.9977    3.3916    1.5455 O   0  0  0  0  0  0  0  0  0  0  0  0
    1.8988    2.1370    2.2974 O   0  0  0  0  0  1  0  0  0  0  0  0
    4.0015    2.1007    3.7543 O   0  0  0  0  0  1  0  0  0  0  0  0
    5.8670    0.5990    1.3918 P   0  0  1  0  0  0  0  0  0  0  0  0
    6.3958    0.5842    2.8434 O   0  0  0  0  0  0  0  0  0  0  0  0
    6.3578   -0.6655    0.6520 O   0  0  0  0  0  1  0  0  0  0  0  0
    6.4143    1.9101    0.6346 O   0  0  0  0  0  0  0  0  0  0  0  0
   -0.8984    1.9597    0.0252 H   0  0  0  0  0  0  0  0  0  0  0  0
    1.5887    2.7994    0.0016 H   0  0  0  0  0  0  0  0  0  0  0  0
    1.5585   -1.4495   -0.0206 H   0  0  0  0  0  0  0  0  0  0  0  0
    3.8668   -0.2536   -0.5501 H   0  0  0  0  0  0  0  0  0  0  0  0
    3.8911    1.5261   -0.5408 H   0  0  0  0  0  0  0  0  0  0  0  0
    3.8286   -1.3728    1.6708 H   0  0  0  0  0  0  0  0  0  0  0  0
    7.3787    1.9634    0.5875 H   0  0  0  0  0  0  0  0  0  0  0  0
   -0.7811   -0.5763    0.0069 H   0  0  0  0  0  0  0  0  0  0  0  0
  1  5  1  0  0  0  0
  1  2  2  0  0  0  0
  1 17  1  0  0  0  0
  2  3  1  0  0  0  0
  2 18  1  0  0  0  0
  3  4  1  0  0  0  0
  3  6  1  0  0  0  0
  4  5  2  0  0  0  0
  4 19  1  0  0  0  0
  5 24  1  0  0  0  0
  6  7  1  0  0  0  0
  6 20  1  0  0  0  0
  6 21  1  0  0  0  0
  7  8  1  1  0  0  0
  7  9  1  0  0  0  0
  7 13  1  0  0  0  0
  8 22  1  0  0  0  0
  9 10  2  0  0  0  0
  9 11  1  0  0  0  0
  9 12  1  0  0  0  0
 13 14  2  1  0  0  0
 13 15  1  0  0  0  0
 13 16  1  0  0  0  0
 16 23  1  0  0  0  0
M  END
$$$$
