ZINC00000471
 OpenBabel08292219463D

 31 32  0  0  1  0  0  0  0  0999 V2000
   -0.0184    1.5028    0.0103 C   0  0  0  0  0  0  0  0  0  0  0  0
    0.0021   -0.0041    0.0020 C   0  0  0  0  0  0  0  0  0  0  0  0
    0.0058   -0.6882   -1.1995 C   0  0  0  0  0  0  0  0  0  0  0  0
    0.0250   -2.0707   -1.2105 C   0  0  0  0  0  0  0  0  0  0  0  0
    0.0400   -2.7719   -0.0203 C   0  0  0  0  0  0  0  0  0  0  0  0
    0.0364   -2.0878    1.1866 C   0  0  0  0  0  0  0  0  0  0  0  0
    0.0229   -0.7006    1.1948 C   0  0  0  0  0  0  0  0  0  0  0  0
    0.0512   -2.7754    2.3587 O   0  0  0  0  0  0  0  0  0  0  0  0
    0.0463   -2.0054    3.5626 C   0  0  0  0  0  0  0  0  0  0  0  0
    0.0647   -2.9457    4.7694 C   0  0  1  0  0  0  0  0  0  0  0  0
    0.9013   -3.6415    4.7056 H   0  0  0  0  0  0  0  0  0  0  0  0
    0.1114   -2.1454    6.0926 C   0  0  0  0  0  0  0  0  0  0  0  0
   -0.7586   -2.9487    6.9742 N   0  0  0  0  0  0  0  0  0  0  0  0
   -1.4536   -3.8015    6.1981 C   0  0  0  0  0  0  0  0  0  0  0  0
   -2.2404   -4.6184    6.6341 O   0  0  0  0  0  0  0  0  0  0  0  0
   -1.1848   -3.6532    4.8895 O   0  0  0  0  0  0  0  0  0  0  0  0
    0.0290   -2.8132   -2.5219 C   0  0  0  0  0  0  0  0  0  0  0  0
    1.0042    1.8801    0.0026 H   0  0  0  0  0  0  0  0  0  0  0  0
   -0.5455    1.8639   -0.8728 H   0  0  0  0  0  0  0  0  0  0  0  0
   -0.5286    1.8543    0.9071 H   0  0  0  0  0  0  0  0  0  0  0  0
   -0.0067   -0.1418   -2.1310 H   0  0  0  0  0  0  0  0  0  0  0  0
    0.0543   -3.8518   -0.0294 H   0  0  0  0  0  0  0  0  0  0  0  0
    0.0245   -0.1656    2.1331 H   0  0  0  0  0  0  0  0  0  0  0  0
    0.9278   -1.3648    3.5877 H   0  0  0  0  0  0  0  0  0  0  0  0
   -0.8520   -1.3890    3.5959 H   0  0  0  0  0  0  0  0  0  0  0  0
    1.1276   -2.1026    6.4846 H   0  0  0  0  0  0  0  0  0  0  0  0
   -0.2950   -1.1434    5.9547 H   0  0  0  0  0  0  0  0  0  0  0  0
   -0.8187   -2.8753    7.9396 H   0  0  0  0  0  0  0  0  0  0  0  0
    1.0575   -2.9779   -2.8430 H   0  0  0  0  0  0  0  0  0  0  0  0
   -0.4710   -3.7737   -2.3971 H   0  0  0  0  0  0  0  0  0  0  0  0
   -0.4968   -2.2250   -3.2740 H   0  0  0  0  0  0  0  0  0  0  0  0
  1  2  1  0  0  0  0
  1 18  1  0  0  0  0
  1 19  1  0  0  0  0
  1 20  1  0  0  0  0
  2  7  2  0  0  0  0
  2  3  1  0  0  0  0
  3  4  2  0  0  0  0
  3 21  1  0  0  0  0
  4  5  1  0  0  0  0
  4 17  1  0  0  0  0
  5  6  2  0  0  0  0
  5 22  1  0  0  0  0
  6  7  1  0  0  0  0
  6  8  1  0  0  0  0
  7 23  1  0  0  0  0
  8  9  1  0  0  0  0
  9 10  1  0  0  0  0
  9 24  1  0  0  0  0
  9 25  1  0  0  0  0
 10 11  1  6  0  0  0
 10 16  1  0  0  0  0
 10 12  1  0  0  0  0
 12 13  1  0  0  0  0
 12 26  1  0  0  0  0
 12 27  1  0  0  0  0
 13 14  1  0  0  0  0
 13 28  1  0  0  0  0
 14 15  2  0  0  0  0
 14 16  1  0  0  0  0
 17 29  1  0  0  0  0
 17 30  1  0  0  0  0
 17 31  1  0  0  0  0
M  END
$$$$
