ZINC01612996
 OpenBabel08292219463D

 82 88  0  0  1  0  0  0  0  0999 V2000
   -0.6879    6.5967   -1.0201 C   0  0  0  0  0  0  0  0  0  0  0  0
   -0.9592    6.0212    0.3713 C   0  0  0  0  0  0  0  0  0  0  0  0
   -1.5133    4.6261    0.2387 C   0  0  0  0  0  0  0  0  0  0  0  0
   -2.9016    4.4052    0.1287 C   0  0  0  0  0  0  0  0  0  0  0  0
   -3.8117    5.4716    0.1473 C   0  0  0  0  0  0  0  0  0  0  0  0
   -5.1507    5.2187    0.0425 C   0  0  0  0  0  0  0  0  0  0  0  0
   -5.6231    3.9082   -0.0832 C   0  0  0  0  0  0  0  0  0  0  0  0
   -4.7661    2.8534   -0.1033 C   0  0  0  0  0  0  0  0  0  0  0  0
   -3.3793    3.0751    0.0027 C   0  0  0  0  0  0  0  0  0  0  0  0
   -2.5207    2.0553   -0.0153 N   0  0  0  0  0  0  0  0  0  0  0  0
   -1.2148    2.2495    0.0809 C   0  0  0  0  0  0  0  0  0  0  0  0
   -0.6879    3.5464    0.2091 C   0  0  0  0  0  0  0  0  0  0  0  0
    0.8103    3.4025    0.2856 C   0  0  0  0  0  0  0  0  0  0  0  0
    1.0961    1.9642    0.2009 N   0  0  0  0  0  0  0  0  0  0  0  0
   -0.0861    1.2897    0.0840 C   0  0  0  0  0  0  0  0  0  0  0  0
   -0.0835   -0.0854   -0.0143 C   0  0  0  0  0  0  0  0  0  0  0  0
    1.1263   -0.7918    0.0075 C   0  0  0  0  0  0  0  0  0  0  0  0
    2.2961   -0.1107    0.1357 C   0  0  0  0  0  0  0  0  0  0  0  0
    2.2656    1.2965    0.2233 C   0  0  0  0  0  0  0  0  0  0  0  0
    3.3119    1.9170    0.3206 O   0  0  0  0  0  0  0  0  0  0  0  0
    3.6319   -0.8030    0.1933 C   0  0  0  0  0  0  0  0  0  0  0  0
    3.5214   -2.1695   -0.2838 O   0  0  0  0  0  0  0  0  0  0  0  0
    2.4557   -2.8521    0.1937 C   0  0  0  0  0  0  0  0  0  0  0  0
    2.5893   -3.8591    0.8479 O   0  0  0  0  0  0  0  0  0  0  0  0
    1.0896   -2.2930   -0.1309 C   0  0  2  0  0  0  0  0  0  0  0  0
    0.7120   -2.6655   -1.5660 C   0  0  0  0  0  0  0  0  0  0  0  0
    0.6753   -4.1887   -1.7046 C   0  0  0  0  0  0  0  0  0  0  0  0
    0.1248   -2.8330    0.7744 O   0  0  0  0  0  0  0  0  0  0  0  0
   -6.0330    6.2522    0.0603 O   0  0  0  0  0  0  0  0  0  0  0  0
   -6.8141    6.3706    1.1512 C   0  0  0  0  0  0  0  0  0  0  0  0
   -6.6377    5.6411    2.1068 O   0  0  0  0  0  0  0  0  0  0  0  0
   -7.7913    7.2983    1.1828 N   0  0  0  0  0  0  0  0  0  0  0  0
   -8.0128    8.1916    0.0375 C   0  0  0  0  0  0  0  0  0  0  0  0
   -9.4877    8.0934   -0.3805 C   0  0  0  0  0  0  0  0  0  0  0  0
  -10.3759    8.3915    0.8296 C   0  0  2  0  0  0  0  0  0  0  0  0
  -10.1156    7.3535    1.9236 C   0  0  0  0  0  0  0  0  0  0  0  0
   -8.6514    7.4395    2.3656 C   0  0  0  0  0  0  0  0  0  0  0  0
  -12.1281    7.0110   -0.1108 C   0  0  0  0  0  0  0  0  0  0  0  0
  -13.6324    6.9415   -0.3833 C   0  0  0  0  0  0  0  0  0  0  0  0
  -14.0157    8.0341   -1.3853 C   0  0  0  0  0  0  0  0  0  0  0  0
  -13.6064    9.3981   -0.8225 C   0  0  0  0  0  0  0  0  0  0  0  0
  -12.1028    9.3964   -0.5373 C   0  0  0  0  0  0  0  0  0  0  0  0
   -1.6177    6.6276   -1.5881 H   0  0  0  0  0  0  0  0  0  0  0  0
   -0.2871    7.6058   -0.9242 H   0  0  0  0  0  0  0  0  0  0  0  0
    0.0343    5.9668   -1.5394 H   0  0  0  0  0  0  0  0  0  0  0  0
   -1.6814    6.6512    0.8906 H   0  0  0  0  0  0  0  0  0  0  0  0
   -0.0294    5.9904    0.9393 H   0  0  0  0  0  0  0  0  0  0  0  0
   -3.4566    6.4870    0.2441 H   0  0  0  0  0  0  0  0  0  0  0  0
   -6.6854    3.7317   -0.1652 H   0  0  0  0  0  0  0  0  0  0  0  0
   -5.1476    1.8477   -0.2010 H   0  0  0  0  0  0  0  0  0  0  0  0
    1.1762    3.8012    1.2318 H   0  0  0  0  0  0  0  0  0  0  0  0
    1.2791    3.9264   -0.5474 H   0  0  0  0  0  0  0  0  0  0  0  0
   -1.0172   -0.6199   -0.1087 H   0  0  0  0  0  0  0  0  0  0  0  0
    4.3441   -0.2617   -0.4294 H   0  0  0  0  0  0  0  0  0  0  0  0
    3.9888   -0.8099    1.2232 H   0  0  0  0  0  0  0  0  0  0  0  0
   -0.2701   -2.2554   -1.8013 H   0  0  0  0  0  0  0  0  0  0  0  0
    1.4513   -2.2557   -2.2542 H   0  0  0  0  0  0  0  0  0  0  0  0
    0.4063   -4.4541   -2.7270 H   0  0  0  0  0  0  0  0  0  0  0  0
    1.6574   -4.5988   -1.4693 H   0  0  0  0  0  0  0  0  0  0  0  0
   -0.0639   -4.5985   -1.0164 H   0  0  0  0  0  0  0  0  0  0  0  0
    0.0481   -3.7963    0.7389 H   0  0  0  0  0  0  0  0  0  0  0  0
   -7.7786    9.2171    0.3234 H   0  0  0  0  0  0  0  0  0  0  0  0
   -7.3752    7.8867   -0.7923 H   0  0  0  0  0  0  0  0  0  0  0  0
   -9.6983    7.0890   -0.7477 H   0  0  0  0  0  0  0  0  0  0  0  0
   -9.6905    8.8192   -1.1682 H   0  0  0  0  0  0  0  0  0  0  0  0
  -10.1474    9.3866    1.2114 H   0  0  0  0  0  0  0  0  0  0  0  0
  -10.3202    6.3560    1.5347 H   0  0  0  0  0  0  0  0  0  0  0  0
  -10.7652    7.5525    2.7759 H   0  0  0  0  0  0  0  0  0  0  0  0
   -8.4353    6.6382    3.0723 H   0  0  0  0  0  0  0  0  0  0  0  0
   -8.4682    8.4049    2.8374 H   0  0  0  0  0  0  0  0  0  0  0  0
  -11.5827    6.8449   -1.0398 H   0  0  0  0  0  0  0  0  0  0  0  0
  -11.8543    6.2435    0.6131 H   0  0  0  0  0  0  0  0  0  0  0  0
  -14.1783    7.0938    0.5477 H   0  0  0  0  0  0  0  0  0  0  0  0
  -13.8832    5.9646   -0.7966 H   0  0  0  0  0  0  0  0  0  0  0  0
  -15.0932    8.0162   -1.5493 H   0  0  0  0  0  0  0  0  0  0  0  0
  -13.4997    7.8598   -2.3294 H   0  0  0  0  0  0  0  0  0  0  0  0
  -14.1519    9.5890    0.1016 H   0  0  0  0  0  0  0  0  0  0  0  0
  -13.8380   10.1766   -1.5494 H   0  0  0  0  0  0  0  0  0  0  0  0
  -11.8107   10.3613   -0.1231 H   0  0  0  0  0  0  0  0  0  0  0  0
  -11.5577    9.2190   -1.4644 H   0  0  0  0  0  0  0  0  0  0  0  0
  -11.8033    8.3392    0.4517 N   0  3  0  0  0  0  0  0  0  0  0  0
  -12.3759    8.4951    1.2895 H   0  0  0  0  0  0  0  0  0  0  0  0
  1  2  1  0  0  0  0
  1 43  1  0  0  0  0
  1 44  1  0  0  0  0
  1 45  1  0  0  0  0
  2  3  1  0  0  0  0
  2 46  1  0  0  0  0
  2 47  1  0  0  0  0
  3 12  2  0  0  0  0
  3  4  1  0  0  0  0
  4  9  2  0  0  0  0
  4  5  1  0  0  0  0
  5  6  2  0  0  0  0
  5 48  1  0  0  0  0
  6  7  1  0  0  0  0
  6 29  1  0  0  0  0
  7  8  2  0  0  0  0
  7 49  1  0  0  0  0
  8  9  1  0  0  0  0
  8 50  1  0  0  0  0
  9 10  1  0  0  0  0
 10 11  2  0  0  0  0
 11 15  1  0  0  0  0
 11 12  1  0  0  0  0
 12 13  1  0  0  0  0
 13 14  1  0  0  0  0
 13 51  1  0  0  0  0
 13 52  1  0  0  0  0
 14 19  1  0  0  0  0
 14 15  1  0  0  0  0
 15 16  2  0  0  0  0
 16 17  1  0  0  0  0
 16 53  1  0  0  0  0
 17 25  1  0  0  0  0
 17 18  2  0  0  0  0
 18 19  1  0  0  0  0
 18 21  1  0  0  0  0
 19 20  2  0  0  0  0
 21 22  1  0  0  0  0
 21 54  1  0  0  0  0
 21 55  1  0  0  0  0
 22 23  1  0  0  0  0
 23 24  2  0  0  0  0
 23 25  1  0  0  0  0
 25 26  1  0  0  0  0
 25 28  1  1  0  0  0
 26 27  1  0  0  0  0
 26 56  1  0  0  0  0
 26 57  1  0  0  0  0
 27 58  1  0  0  0  0
 27 59  1  0  0  0  0
 27 60  1  0  0  0  0
 28 61  1  0  0  0  0
 29 30  1  0  0  0  0
 30 31  2  0  0  0  0
 30 32  1  0  0  0  0
 32 37  1  0  0  0  0
 32 33  1  0  0  0  0
 33 34  1  0  0  0  0
 33 62  1  0  0  0  0
 33 63  1  0  0  0  0
 34 35  1  0  0  0  0
 34 64  1  0  0  0  0
 34 65  1  0  0  0  0
 35 36  1  0  0  0  0
 35 66  1  1  0  0  0
 35 81  1  0  0  0  0
 36 37  1  0  0  0  0
 36 67  1  0  0  0  0
 36 68  1  0  0  0  0
 37 69  1  0  0  0  0
 37 70  1  0  0  0  0
 38 39  1  0  0  0  0
 38 71  1  0  0  0  0
 38 72  1  0  0  0  0
 38 81  1  0  0  0  0
 39 40  1  0  0  0  0
 39 73  1  0  0  0  0
 39 74  1  0  0  0  0
 40 41  1  0  0  0  0
 40 75  1  0  0  0  0
 40 76  1  0  0  0  0
 41 42  1  0  0  0  0
 41 77  1  0  0  0  0
 41 78  1  0  0  0  0
 42 79  1  0  0  0  0
 42 80  1  0  0  0  0
 42 81  1  0  0  0  0
 81 82  1  0  0  0  0
M  CHG  1  81   1
M  END
$$$$
