ZINC01530628
 OpenBabel08292219463D

 38 37  0  0  0  0  0  0  0  0999 V2000
   -0.6410   -2.3437    0.1147 C   0  0  0  0  0  0  0  0  0  0  0  0
   -1.1855   -0.9145    0.1561 C   0  0  0  0  0  0  0  0  0  0  0  0
   -0.1023    0.0113    0.0489 O   0  0  0  0  0  0  0  0  0  0  0  0
   -0.2955    1.6050    0.1709 P   0  0  0  0  0  0  0  0  0  0  0  0
   -1.2994    2.0574   -0.8181 O   0  0  0  0  0  0  0  0  0  0  0  0
    1.1084    2.3393   -0.1151 O   0  0  0  0  0  0  0  0  0  0  0  0
    1.2437    3.7602   -0.1842 C   0  0  0  0  0  0  0  0  0  0  0  0
    2.7032    4.1203   -0.4691 C   0  0  0  0  0  0  0  0  0  0  0  0
   -0.9608    2.0887    2.1249 S   0  0  0  0  0  0  0  0  0  0  0  0
    0.2782    1.3294    3.2107 C   0  0  0  0  0  0  0  0  0  0  0  0
    1.5580    2.1675    3.1885 C   0  0  0  0  0  0  0  0  0  0  0  0
    2.5534    1.5651    4.0853 N   0  3  0  0  0  0  0  0  0  0  0  0
    2.8546    0.1994    3.6358 C   0  0  0  0  0  0  0  0  0  0  0  0
    3.7822    2.3698    4.0639 C   0  0  0  0  0  0  0  0  0  0  0  0
    2.0189    1.5238    5.4530 C   0  0  0  0  0  0  0  0  0  0  0  0
   -0.1165   -2.5055   -0.8271 H   0  0  0  0  0  0  0  0  0  0  0  0
    0.0489   -2.4938    0.9451 H   0  0  0  0  0  0  0  0  0  0  0  0
   -1.4672   -3.0498    0.1964 H   0  0  0  0  0  0  0  0  0  0  0  0
   -1.7100   -0.7526    1.0978 H   0  0  0  0  0  0  0  0  0  0  0  0
   -1.8754   -0.7643   -0.6744 H   0  0  0  0  0  0  0  0  0  0  0  0
    0.6113    4.1470   -0.9833 H   0  0  0  0  0  0  0  0  0  0  0  0
    0.9395    4.2007    0.7653 H   0  0  0  0  0  0  0  0  0  0  0  0
    3.3355    3.7335    0.3300 H   0  0  0  0  0  0  0  0  0  0  0  0
    3.0074    3.6798   -1.4186 H   0  0  0  0  0  0  0  0  0  0  0  0
    2.8064    5.2042   -0.5218 H   0  0  0  0  0  0  0  0  0  0  0  0
   -0.1093    1.2848    4.2286 H   0  0  0  0  0  0  0  0  0  0  0  0
    0.4983    0.3207    2.8612 H   0  0  0  0  0  0  0  0  0  0  0  0
    1.9547    2.1981    2.1737 H   0  0  0  0  0  0  0  0  0  0  0  0
    1.3346    3.1808    3.5220 H   0  0  0  0  0  0  0  0  0  0  0  0
    3.2512    0.2300    2.6210 H   0  0  0  0  0  0  0  0  0  0  0  0
    3.5932   -0.2476    4.3013 H   0  0  0  0  0  0  0  0  0  0  0  0
    1.9428   -0.3977    3.6517 H   0  0  0  0  0  0  0  0  0  0  0  0
    3.5588    3.3832    4.3974 H   0  0  0  0  0  0  0  0  0  0  0  0
    4.5208    1.9229    4.7294 H   0  0  0  0  0  0  0  0  0  0  0  0
    4.1789    2.4004    3.0491 H   0  0  0  0  0  0  0  0  0  0  0  0
    1.1071    0.9268    5.4688 H   0  0  0  0  0  0  0  0  0  0  0  0
    2.7575    1.0769    6.1184 H   0  0  0  0  0  0  0  0  0  0  0  0
    1.7954    2.5372    5.7865 H   0  0  0  0  0  0  0  0  0  0  0  0
  1  2  1  0  0  0  0
  1 16  1  0  0  0  0
  1 17  1  0  0  0  0
  1 18  1  0  0  0  0
  2  3  1  0  0  0  0
  2 19  1  0  0  0  0
  2 20  1  0  0  0  0
  3  4  1  0  0  0  0
  4  5  2  0  0  0  0
  4  6  1  0  0  0  0
  4  9  1  0  0  0  0
  6  7  1  0  0  0  0
  7  8  1  0  0  0  0
  7 21  1  0  0  0  0
  7 22  1  0  0  0  0
  8 23  1  0  0  0  0
  8 24  1  0  0  0  0
  8 25  1  0  0  0  0
  9 10  1  0  0  0  0
 10 11  1  0  0  0  0
 10 26  1  0  0  0  0
 10 27  1  0  0  0  0
 11 12  1  0  0  0  0
 11 28  1  0  0  0  0
 11 29  1  0  0  0  0
 12 13  1  0  0  0  0
 12 14  1  0  0  0  0
 12 15  1  0  0  0  0
 13 30  1  0  0  0  0
 13 31  1  0  0  0  0
 13 32  1  0  0  0  0
 14 33  1  0  0  0  0
 14 34  1  0  0  0  0
 14 35  1  0  0  0  0
 15 36  1  0  0  0  0
 15 37  1  0  0  0  0
 15 38  1  0  0  0  0
M  CHG  1  12   1
M  END
$$$$
