ZINC03830910
 OpenBabel08292219463D

 33 34  0  0  1  0  0  0  0  0999 V2000
    2.0930    1.6092    1.2271 C   0  0  0  0  0  0  0  0  0  0  0  0
    1.2719    2.0124    0.0007 C   0  0  2  0  0  0  0  0  0  0  0  0
    1.1190    3.5216    0.0103 C   0  0  0  0  0  0  0  0  0  0  0  0
    2.0869    4.2516    0.0046 O   0  0  0  0  0  0  0  0  0  0  0  0
   -0.1348    4.0217    0.0250 N   0  0  0  0  0  0  0  0  0  0  0  0
   -1.2132    3.2298    0.0315 C   0  0  0  0  0  0  0  0  0  0  0  0
   -2.3041    3.7642    0.0452 O   0  0  0  0  0  0  0  0  0  0  0  0
   -1.1780    1.8924    0.0178 N   0  0  0  0  0  0  0  0  0  0  0  0
   -0.0144    1.2081    0.0087 C   0  0  0  0  0  0  0  0  0  0  0  0
    0.0021   -0.0041    0.0020 O   0  0  0  0  0  0  0  0  0  0  0  0
   -2.4399    1.1483    0.0190 C   0  0  0  0  0  0  0  0  0  0  0  0
    2.0550    1.6323   -1.2295 C   0  0  0  0  0  0  0  0  0  0  0  0
    1.5448    0.7470   -2.0242 C   0  0  0  0  0  0  0  0  0  0  0  0
    2.2092    0.2613   -3.2791 C   0  0  0  0  0  0  0  0  0  0  0  0
    3.3162    1.2309   -3.6986 C   0  0  0  0  0  0  0  0  0  0  0  0
    4.2005    1.5151   -2.4779 C   0  0  0  0  0  0  0  0  0  0  0  0
    3.3749    2.3081   -1.4601 C   0  0  0  0  0  0  0  0  0  0  0  0
    3.0328    2.1806    1.2431 H   0  0  0  0  0  0  0  0  0  0  0  0
    2.3185    0.5336    1.1799 H   0  0  0  0  0  0  0  0  0  0  0  0
    1.5179    1.8235    2.1400 H   0  0  0  0  0  0  0  0  0  0  0  0
   -0.2927    5.1103    0.0320 H   0  0  0  0  0  0  0  0  0  0  0  0
   -2.2290    0.0688    0.0067 H   0  0  0  0  0  0  0  0  0  0  0  0
   -3.0253    1.4178   -0.8725 H   0  0  0  0  0  0  0  0  0  0  0  0
   -3.0129    1.3997    0.9237 H   0  0  0  0  0  0  0  0  0  0  0  0
    0.5649    0.3024   -1.7957 H   0  0  0  0  0  0  0  0  0  0  0  0
    2.6480   -0.7316   -3.1010 H   0  0  0  0  0  0  0  0  0  0  0  0
    1.4644    0.1937   -4.0858 H   0  0  0  0  0  0  0  0  0  0  0  0
    3.9169    0.7768   -4.5005 H   0  0  0  0  0  0  0  0  0  0  0  0
    2.8659    2.1662   -4.0626 H   0  0  0  0  0  0  0  0  0  0  0  0
    4.5318    0.5639   -2.0358 H   0  0  0  0  0  0  0  0  0  0  0  0
    5.0784    2.1002   -2.7893 H   0  0  0  0  0  0  0  0  0  0  0  0
    3.2042    3.3239   -1.8462 H   0  0  0  0  0  0  0  0  0  0  0  0
    3.9286    2.3647   -0.5113 H   0  0  0  0  0  0  0  0  0  0  0  0
  1 18  1  0  0  0  0
  1 19  1  0  0  0  0
  1 20  1  0  0  0  0
  2  1  1  1  0  0  0
  2  9  1  0  0  0  0
  2  3  1  0  0  0  0
  2 12  1  0  0  0  0
  3  4  2  0  0  0  0
  3  5  1  0  0  0  0
  5  6  1  0  0  0  0
  5 21  1  0  0  0  0
  6  7  2  0  0  0  0
  6  8  1  0  0  0  0
  8  9  1  0  0  0  0
  8 11  1  0  0  0  0
  9 10  2  0  0  0  0
 11 22  1  0  0  0  0
 11 23  1  0  0  0  0
 11 24  1  0  0  0  0
 12 17  1  0  0  0  0
 12 13  2  0  0  0  0
 13 14  1  0  0  0  0
 13 25  1  0  0  0  0
 14 15  1  0  0  0  0
 14 26  1  0  0  0  0
 14 27  1  0  0  0  0
 15 16  1  0  0  0  0
 15 28  1  0  0  0  0
 15 29  1  0  0  0  0
 16 17  1  0  0  0  0
 16 30  1  0  0  0  0
 16 31  1  0  0  0  0
 17 32  1  0  0  0  0
 17 33  1  0  0  0  0
M  END
$$$$
