ZINC03831403
 OpenBabel08292219463D

 49 52  0  0  1  0  0  0  0  0999 V2000
    2.2982   -8.7592   -3.7306 C   0  0  0  0  0  0  0  0  0  0  0  0
    1.3894   -8.1799   -2.7922 O   0  0  0  0  0  0  0  0  0  0  0  0
    1.3221   -6.8231   -2.7555 C   0  0  0  0  0  0  0  0  0  0  0  0
    2.1208   -6.0678   -3.6198 C   0  0  0  0  0  0  0  0  0  0  0  0
    2.0761   -4.7089   -3.6070 C   0  0  0  0  0  0  0  0  0  0  0  0
    1.2159   -4.0457   -2.7134 C   0  0  0  0  0  0  0  0  0  0  0  0
    0.4063   -4.8113   -1.8373 C   0  0  0  0  0  0  0  0  0  0  0  0
    0.4710   -6.2128   -1.8784 C   0  0  0  0  0  0  0  0  0  0  0  0
   -0.4533   -4.1440   -0.9446 C   0  0  0  0  0  0  0  0  0  0  0  0
   -0.4682   -2.7782   -0.9635 C   0  0  0  0  0  0  0  0  0  0  0  0
    0.3534   -2.0864   -1.8505 C   0  0  0  0  0  0  0  0  0  0  0  0
    1.1526   -2.7111   -2.6810 N   0  0  0  0  0  0  0  0  0  0  0  0
   -1.3332   -4.9149    0.0054 C   0  0  1  0  0  0  0  0  0  0  0  0
   -1.4755   -5.9276   -0.3718 H   0  0  0  0  0  0  0  0  0  0  0  0
   -0.6694   -4.9723    1.3827 C   0  0  2  0  0  0  0  0  0  0  0  0
   -0.4369   -3.9604    1.7146 H   0  0  0  0  0  0  0  0  0  0  0  0
    0.6234   -5.7859    1.2899 C   0  0  0  0  0  0  0  0  0  0  0  0
    0.5202   -6.9889    2.2366 C   0  0  2  0  0  0  0  0  0  0  0  0
    1.4343   -7.5812    2.1955 H   0  0  0  0  0  0  0  0  0  0  0  0
   -0.6837   -7.8389    1.8096 C   0  0  0  0  0  0  0  0  0  0  0  0
   -1.9443   -6.9732    1.8671 C   0  0  0  0  0  0  0  0  0  0  0  0
   -1.5861   -5.5986    2.3384 N   0  3  1  0  0  0  0  0  0  0  0  0
   -0.9917   -5.6325    3.6767 C   0  0  0  0  0  0  0  0  0  0  0  0
    0.2892   -6.4658    3.6604 C   0  0  2  0  0  0  0  0  0  0  0  0
    0.1861   -7.3066    4.3463 H   0  0  0  0  0  0  0  0  0  0  0  0
    1.4562   -5.6091    4.0792 C   0  0  0  0  0  0  0  0  0  0  0  0
    2.1678   -5.9391    5.1284 C   0  0  0  0  0  0  0  0  0  0  0  0
   -2.6011   -4.2647    0.1144 O   0  0  0  0  0  0  0  0  0  0  0  0
    2.2533   -9.8458   -3.6565 H   0  0  0  0  0  0  0  0  0  0  0  0
    2.0233   -8.4521   -4.7397 H   0  0  0  0  0  0  0  0  0  0  0  0
    3.3111   -8.4216   -3.5113 H   0  0  0  0  0  0  0  0  0  0  0  0
    2.7835   -6.5715   -4.3079 H   0  0  0  0  0  0  0  0  0  0  0  0
    2.6998   -4.1403   -4.2809 H   0  0  0  0  0  0  0  0  0  0  0  0
   -0.1453   -6.8049   -1.2181 H   0  0  0  0  0  0  0  0  0  0  0  0
   -1.1165   -2.2353   -0.2917 H   0  0  0  0  0  0  0  0  0  0  0  0
    0.3312   -1.0066   -1.8543 H   0  0  0  0  0  0  0  0  0  0  0  0
    0.7615   -6.1367    0.2672 H   0  0  0  0  0  0  0  0  0  0  0  0
    1.4688   -5.1629    1.5817 H   0  0  0  0  0  0  0  0  0  0  0  0
   -0.5340   -8.1991    0.7918 H   0  0  0  0  0  0  0  0  0  0  0  0
   -0.7913   -8.6862    2.4869 H   0  0  0  0  0  0  0  0  0  0  0  0
   -2.3971   -6.9275    0.8766 H   0  0  0  0  0  0  0  0  0  0  0  0
   -2.6540   -7.4138    2.5673 H   0  0  0  0  0  0  0  0  0  0  0  0
   -0.7586   -4.6164    3.9948 H   0  0  0  0  0  0  0  0  0  0  0  0
   -1.7008   -6.0751    4.3763 H   0  0  0  0  0  0  0  0  0  0  0  0
    1.7058   -4.7231    3.5144 H   0  0  0  0  0  0  0  0  0  0  0  0
    1.9181   -6.8252    5.6933 H   0  0  0  0  0  0  0  0  0  0  0  0
    3.0041   -5.3252    5.4286 H   0  0  0  0  0  0  0  0  0  0  0  0
   -2.5608   -3.3909    0.5267 H   0  0  0  0  0  0  0  0  0  0  0  0
   -2.4274   -5.0435    2.3846 H   0  0  0  0  0  0  0  0  0  0  0  0
  1  2  1  0  0  0  0
  1 29  1  0  0  0  0
  1 30  1  0  0  0  0
  1 31  1  0  0  0  0
  2  3  1  0  0  0  0
  3  8  2  0  0  0  0
  3  4  1  0  0  0  0
  4  5  2  0  0  0  0
  4 32  1  0  0  0  0
  5  6  1  0  0  0  0
  5 33  1  0  0  0  0
  6 12  2  0  0  0  0
  6  7  1  0  0  0  0
  7  8  1  0  0  0  0
  7  9  2  0  0  0  0
  8 34  1  0  0  0  0
  9 10  1  0  0  0  0
  9 13  1  0  0  0  0
 10 11  2  0  0  0  0
 10 35  1  0  0  0  0
 11 12  1  0  0  0  0
 11 36  1  0  0  0  0
 13 14  1  6  0  0  0
 13 15  1  0  0  0  0
 13 28  1  0  0  0  0
 15 16  1  1  0  0  0
 15 22  1  0  0  0  0
 15 17  1  0  0  0  0
 17 18  1  0  0  0  0
 17 37  1  0  0  0  0
 17 38  1  0  0  0  0
 18 19  1  6  0  0  0
 18 24  1  0  0  0  0
 18 20  1  0  0  0  0
 20 21  1  0  0  0  0
 20 39  1  0  0  0  0
 20 40  1  0  0  0  0
 21 22  1  0  0  0  0
 21 41  1  0  0  0  0
 21 42  1  0  0  0  0
 22 23  1  0  0  0  0
 22 49  1  1  0  0  0
 23 24  1  0  0  0  0
 23 43  1  0  0  0  0
 23 44  1  0  0  0  0
 24 25  1  1  0  0  0
 24 26  1  0  0  0  0
 26 27  2  0  0  0  0
 26 45  1  0  0  0  0
 27 46  1  0  0  0  0
 27 47  1  0  0  0  0
 28 48  1  0  0  0  0
M  CHG  1  22   1
M  END
$$$$
