ZINC19795769
 OpenBabel08292219463D

 43 44  0  0  1  0  0  0  0  0999 V2000
    4.4591    0.1549   -3.3236 C   0  0  0  0  0  0  0  0  0  0  0  0
    3.2486    0.1012   -4.2577 C   0  0  1  0  0  0  0  0  0  0  0  0
    3.4015   -0.5762   -5.0978 H   0  0  0  0  0  0  0  0  0  0  0  0
    1.9333   -0.1482   -3.5194 C   0  0  1  0  0  0  0  0  0  0  0  0
    2.0316   -0.2175   -2.4360 H   0  0  0  0  0  0  0  0  0  0  0  0
    1.6159    1.2331   -4.0275 C   0  0  0  0  0  0  0  0  0  0  0  0
    0.6363    1.9368   -3.9004 O   0  0  0  0  0  0  0  0  0  0  0  0
    2.7819    1.4264   -4.6678 N   0  0  0  0  0  0  0  0  0  0  0  0
    3.4277    2.6636   -5.5593 S   0  0  0  0  0  0  0  0  0  0  0  0
    2.8595    3.8986   -5.0416 O   0  0  0  0  0  0  0  0  0  0  0  0
    4.8696    2.6095   -5.3746 O   0  0  0  0  0  0  0  0  0  0  0  0
    3.0481    2.4294   -6.9439 O   0  0  0  0  0  1  0  0  0  0  0  0
    1.1072   -1.2108   -4.0978 N   0  0  0  0  0  0  0  0  0  0  0  0
    0.2230   -1.8728   -3.3256 C   0  0  0  0  0  0  0  0  0  0  0  0
    0.1785   -1.6565   -2.1307 O   0  0  0  0  0  0  0  0  0  0  0  0
   -0.6950   -2.8645   -3.9337 C   0  0  0  0  0  0  0  0  0  0  0  0
   -1.6197   -3.4268   -3.2084 N   0  0  0  0  0  0  0  0  0  0  0  0
   -1.8204   -3.0106   -1.8699 O   0  0  0  0  0  0  0  0  0  0  0  0
   -2.8658   -3.7118   -1.1937 C   0  0  0  0  0  0  0  0  0  0  0  0
   -4.1865   -3.4978   -1.9358 C   0  0  0  0  0  0  0  0  0  0  0  0
   -2.5374   -5.2057   -1.1575 C   0  0  0  0  0  0  0  0  0  0  0  0
   -2.9909   -3.1907    0.2148 C   0  0  0  0  0  0  0  0  0  0  0  0
   -2.2532   -2.3012    0.6035 O   0  0  0  0  0  0  0  0  0  0  0  0
   -3.8299   -3.6586    0.9657 O   0  0  0  0  0  1  0  0  0  0  0  0
   -0.5615   -3.2159   -5.3639 C   0  0  0  0  0  0  0  0  0  0  0  0
   -1.3333   -4.2069   -5.9092 C   0  0  0  0  0  0  0  0  0  0  0  0
   -0.7568   -4.1857   -7.6014 S   0  0  0  0  0  0  0  0  0  0  0  0
    0.4418   -2.8731   -7.4161 C   0  0  0  0  0  0  0  0  0  0  0  0
    0.3072   -2.5685   -6.1393 N   0  0  0  0  0  0  0  0  0  0  0  0
    1.2857   -2.3187   -8.3637 N   0  0  0  0  0  0  0  0  0  0  0  0
    4.3279    0.9640   -2.6050 H   0  0  0  0  0  0  0  0  0  0  0  0
    4.5500   -0.7922   -2.7917 H   0  0  0  0  0  0  0  0  0  0  0  0
    5.3618    0.3313   -3.9084 H   0  0  0  0  0  0  0  0  0  0  0  0
    1.1966   -1.4379   -5.0366 H   0  0  0  0  0  0  0  0  0  0  0  0
   -4.0960   -3.8747   -2.9546 H   0  0  0  0  0  0  0  0  0  0  0  0
   -4.9840   -4.0327   -1.4200 H   0  0  0  0  0  0  0  0  0  0  0  0
   -4.4205   -2.4335   -1.9616 H   0  0  0  0  0  0  0  0  0  0  0  0
   -1.5965   -5.3582   -0.6287 H   0  0  0  0  0  0  0  0  0  0  0  0
   -3.3349   -5.7406   -0.6416 H   0  0  0  0  0  0  0  0  0  0  0  0
   -2.4469   -5.5826   -2.1762 H   0  0  0  0  0  0  0  0  0  0  0  0
   -2.0834   -4.8300   -5.4449 H   0  0  0  0  0  0  0  0  0  0  0  0
    1.2715   -2.6460   -9.2767 H   0  0  0  0  0  0  0  0  0  0  0  0
    1.8911   -1.6029   -8.1145 H   0  0  0  0  0  0  0  0  0  0  0  0
  1  2  1  0  0  0  0
  1 31  1  0  0  0  0
  1 32  1  0  0  0  0
  1 33  1  0  0  0  0
  2  3  1  6  0  0  0
  2  8  1  0  0  0  0
  2  4  1  0  0  0  0
  4  5  1  1  0  0  0
  4  6  1  0  0  0  0
  4 13  1  0  0  0  0
  6  7  2  0  0  0  0
  6  8  1  0  0  0  0
  8  9  1  0  0  0  0
  9 10  2  0  0  0  0
  9 11  2  0  0  0  0
  9 12  1  0  0  0  0
 13 14  1  0  0  0  0
 13 34  1  0  0  0  0
 14 15  2  0  0  0  0
 14 16  1  0  0  0  0
 16 17  2  0  0  0  0
 16 25  1  0  0  0  0
 17 18  1  0  0  0  0
 18 19  1  0  0  0  0
 19 20  1  0  0  0  0
 19 21  1  0  0  0  0
 19 22  1  0  0  0  0
 20 35  1  0  0  0  0
 20 36  1  0  0  0  0
 20 37  1  0  0  0  0
 21 38  1  0  0  0  0
 21 39  1  0  0  0  0
 21 40  1  0  0  0  0
 22 23  2  0  0  0  0
 22 24  1  0  0  0  0
 25 29  1  0  0  0  0
 25 26  2  0  0  0  0
 26 27  1  0  0  0  0
 26 41  1  0  0  0  0
 27 28  1  0  0  0  0
 28 29  2  0  0  0  0
 28 30  1  0  0  0  0
 30 42  1  0  0  0  0
 30 43  1  0  0  0  0
M  END
$$$$
