ZINC04097283
 OpenBabel08292219463D

 62 63  0  0  1  0  0  0  0  0999 V2000
   -7.0461    9.4458    4.1008 C   0  0  0  0  0  0  0  0  0  0  0  0
   -6.5190    8.0771    4.5361 C   0  0  0  0  0  0  0  0  0  0  0  0
   -5.2820    7.7204    3.7094 C   0  0  0  0  0  0  0  0  0  0  0  0
   -4.7549    6.3516    4.1447 C   0  0  2  0  0  0  0  0  0  0  0  0
   -4.5383    6.3455    5.2130 H   0  0  0  0  0  0  0  0  0  0  0  0
   -3.4935    5.9591    3.3291 C   0  0  0  0  0  0  0  0  0  0  0  0
   -3.5460    4.4125    3.3993 C   0  0  2  0  0  0  0  0  0  0  0  0
   -3.1250    4.0608    4.3412 H   0  0  0  0  0  0  0  0  0  0  0  0
   -5.7629    5.2395    3.7861 C   0  0  0  0  0  0  0  0  0  0  0  0
   -5.2904    2.8839    4.1210 C   0  0  0  0  0  0  0  0  0  0  0  0
   -2.8025    3.8090    2.2356 C   0  0  0  0  0  0  0  0  0  0  0  0
   -3.4117    3.4290    1.2581 O   0  0  0  0  0  0  0  0  0  0  0  0
   -1.4607    3.6914    2.2812 N   0  0  0  0  0  0  0  0  0  0  0  0
   -0.7379    3.1047    1.1500 C   0  0  1  0  0  0  0  0  0  0  0  0
   -1.2316    3.3840    0.2192 H   0  0  0  0  0  0  0  0  0  0  0  0
    0.7012    3.6240    1.1397 C   0  0  2  0  0  0  0  0  0  0  0  0
    1.2258    3.2586    2.0225 H   0  0  0  0  0  0  0  0  0  0  0  0
    0.6917    5.1549    1.1486 C   0  0  1  0  0  0  0  0  0  0  0  0
    0.2225    5.5109    2.0659 H   0  0  0  0  0  0  0  0  0  0  0  0
    2.1335    5.6671    1.0774 C   0  0  1  0  0  0  0  0  0  0  0  0
    2.6798    5.3428    1.9631 H   0  0  0  0  0  0  0  0  0  0  0  0
    2.8048    5.0973   -0.1759 C   0  0  2  0  0  0  0  0  0  0  0  0
    2.2881    5.4620   -1.0637 H   0  0  0  0  0  0  0  0  0  0  0  0
    2.7328    3.5687   -0.1337 C   0  0  2  0  0  0  0  0  0  0  0  0
    3.1710    3.1588   -1.0437 H   0  0  0  0  0  0  0  0  0  0  0  0
    1.3669    3.1600   -0.0366 O   0  0  0  0  0  0  0  0  0  0  0  0
    3.6507    2.9593    1.3074 S   0  0  0  0  0  0  0  0  0  0  0  0
    3.7301    1.1654    1.0507 C   0  0  0  0  0  0  0  0  0  0  0  0
    4.1724    5.5100   -0.2146 O   0  0  0  0  0  0  0  0  0  0  0  0
    2.1309    7.0946    1.0113 O   0  0  0  0  0  0  0  0  0  0  0  0
   -0.0418    5.6345    0.0199 O   0  0  0  0  0  0  0  0  0  0  0  0
   -0.7293    1.5808    1.2855 C   0  0  1  0  0  0  0  0  0  0  0  0
   -0.3053    1.3042    2.2508 H   0  0  0  0  0  0  0  0  0  0  0  0
   -2.1616    1.0519    1.1871 C   0  0  0  0  0  0  0  0  0  0  0  0
    0.0608    1.0140    0.2383 O   0  0  0  0  0  0  0  0  0  0  0  0
   -7.9273    9.7000    4.6898 H   0  0  0  0  0  0  0  0  0  0  0  0
   -6.2743   10.1993    4.2581 H   0  0  0  0  0  0  0  0  0  0  0  0
   -7.3122    9.4135    3.0443 H   0  0  0  0  0  0  0  0  0  0  0  0
   -7.2908    7.3237    4.3788 H   0  0  0  0  0  0  0  0  0  0  0  0
   -6.2529    8.1095    5.5927 H   0  0  0  0  0  0  0  0  0  0  0  0
   -4.5102    8.4738    3.8667 H   0  0  0  0  0  0  0  0  0  0  0  0
   -5.5481    7.6880    2.6528 H   0  0  0  0  0  0  0  0  0  0  0  0
   -2.5875    6.3407    3.8001 H   0  0  0  0  0  0  0  0  0  0  0  0
   -3.5720    6.3061    2.2989 H   0  0  0  0  0  0  0  0  0  0  0  0
   -6.4266    5.5825    2.9924 H   0  0  0  0  0  0  0  0  0  0  0  0
   -6.3465    4.9669    4.6654 H   0  0  0  0  0  0  0  0  0  0  0  0
   -5.0308    3.0687    5.1634 H   0  0  0  0  0  0  0  0  0  0  0  0
   -6.3544    2.6596    4.0459 H   0  0  0  0  0  0  0  0  0  0  0  0
   -4.7134    2.0379    3.7474 H   0  0  0  0  0  0  0  0  0  0  0  0
   -0.9735    3.9953    3.0630 H   0  0  0  0  0  0  0  0  0  0  0  0
    4.2707    0.7037    1.8769 H   0  0  0  0  0  0  0  0  0  0  0  0
    2.7194    0.7596    1.0059 H   0  0  0  0  0  0  0  0  0  0  0  0
    4.2479    0.9548    0.1149 H   0  0  0  0  0  0  0  0  0  0  0  0
    4.6598    5.1845   -0.9837 H   0  0  0  0  0  0  0  0  0  0  0  0
    3.0131    7.4877    0.9641 H   0  0  0  0  0  0  0  0  0  0  0  0
   -0.0887    6.5986   -0.0379 H   0  0  0  0  0  0  0  0  0  0  0  0
   -2.1469   -0.0380    1.1830 H   0  0  0  0  0  0  0  0  0  0  0  0
   -2.6196    1.4125    0.2661 H   0  0  0  0  0  0  0  0  0  0  0  0
   -2.7385    1.4043    2.0421 H   0  0  0  0  0  0  0  0  0  0  0  0
    0.1109    0.0486    0.2619 H   0  0  0  0  0  0  0  0  0  0  0  0
   -4.9832    4.0874    3.3050 N   0  3  2  0  0  0  0  0  0  0  0  0
   -5.2253    3.8988    2.3252 H   0  0  0  0  0  0  0  0  0  0  0  0
  1  2  1  0  0  0  0
  1 36  1  0  0  0  0
  1 37  1  0  0  0  0
  1 38  1  0  0  0  0
  2  3  1  0  0  0  0
  2 39  1  0  0  0  0
  2 40  1  0  0  0  0
  3  4  1  0  0  0  0
  3 41  1  0  0  0  0
  3 42  1  0  0  0  0
  4  5  1  1  0  0  0
  4  9  1  0  0  0  0
  4  6  1  0  0  0  0
  6  7  1  0  0  0  0
  6 43  1  0  0  0  0
  6 44  1  0  0  0  0
  7  8  1  1  0  0  0
  7 11  1  0  0  0  0
  7 61  1  0  0  0  0
  9 45  1  0  0  0  0
  9 46  1  0  0  0  0
  9 61  1  0  0  0  0
 10 47  1  0  0  0  0
 10 48  1  0  0  0  0
 10 49  1  0  0  0  0
 10 61  1  0  0  0  0
 11 12  2  0  0  0  0
 11 13  1  0  0  0  0
 13 14  1  0  0  0  0
 13 50  1  0  0  0  0
 14 15  1  6  0  0  0
 14 16  1  0  0  0  0
 14 32  1  0  0  0  0
 16 17  1  1  0  0  0
 16 26  1  0  0  0  0
 16 18  1  0  0  0  0
 18 19  1  1  0  0  0
 18 20  1  0  0  0  0
 18 31  1  0  0  0  0
 20 21  1  1  0  0  0
 20 22  1  0  0  0  0
 20 30  1  0  0  0  0
 22 23  1  6  0  0  0
 22 24  1  0  0  0  0
 22 29  1  0  0  0  0
 24 25  1  6  0  0  0
 24 26  1  0  0  0  0
 24 27  1  0  0  0  0
 27 28  1  0  0  0  0
 28 51  1  0  0  0  0
 28 52  1  0  0  0  0
 28 53  1  0  0  0  0
 29 54  1  0  0  0  0
 30 55  1  0  0  0  0
 31 56  1  0  0  0  0
 32 33  1  1  0  0  0
 32 34  1  0  0  0  0
 32 35  1  0  0  0  0
 34 57  1  0  0  0  0
 34 58  1  0  0  0  0
 34 59  1  0  0  0  0
 35 60  1  0  0  0  0
 61 62  1  6  0  0  0
M  CHG  1  61   1
M  END
$$$$
