ZINC04097392
 OpenBabel08292219463D

 12 11  0  0  1  0  0  0  0  0999 V2000
   -0.0127    1.0858    0.0080 C   0  0  2  0  0  0  0  0  0  0  0  0
    0.0021   -0.0041    0.0020 H   0  0  0  0  0  0  0  0  0  0  0  0
   -0.7527    1.5927   -1.2315 C   0  0  0  0  0  0  0  0  0  0  0  0
   -0.7717    2.9915   -1.2238 F   0  0  0  0  0  0  0  0  0  0  0  0
   -0.0979    1.1415   -2.3825 F   0  0  0  0  0  0  0  0  0  0  0  0
   -2.0652    1.1084   -1.2216 F   0  0  0  0  0  0  0  0  0  0  0  0
   -0.6816    1.5467    1.1837 O   0  0  0  0  0  0  0  0  0  0  0  0
   -0.0679    1.1266    2.4039 C   0  0  0  0  0  0  0  0  0  0  0  0
   -0.0504   -0.2712    2.4601 F   0  0  0  0  0  0  0  0  0  0  0  0
    1.2431    1.6119    2.4578 F   0  0  0  0  0  0  0  0  0  0  0  0
    1.2998    1.5701   -0.0019 F   0  0  0  0  0  0  0  0  0  0  0  0
   -0.6349    1.5170    3.2490 H   0  0  0  0  0  0  0  0  0  0  0  0
  1  2  1  6  0  0  0
  1  3  1  0  0  0  0
  1  7  1  0  0  0  0
  1 11  1  0  0  0  0
  3  4  1  0  0  0  0
  3  5  1  0  0  0  0
  3  6  1  0  0  0  0
  7  8  1  0  0  0  0
  8  9  1  0  0  0  0
  8 10  1  0  0  0  0
  8 12  1  0  0  0  0
M  END
$$$$
