ZINC01530668
 OpenBabel08292219463D

 59 60  0  0  0  0  0  0  0  0999 V2000
   -0.9112   -0.4997   -0.3023 C   0  0  0  0  0  0  0  0  0  0  0  0
    0.3961   -0.0097    0.3237 C   0  0  0  0  0  0  0  0  0  0  0  0
    0.5283    1.4999    0.1126 C   0  0  0  0  0  0  0  0  0  0  0  0
    0.3904   -0.3042    1.7629 N   0  3  0  0  0  0  0  0  0  0  0  0
   -0.8615    0.1828    2.3574 C   0  0  0  0  0  0  0  0  0  0  0  0
    0.4971   -1.7552    1.9662 C   0  0  0  0  0  0  0  0  0  0  0  0
   -0.8940   -2.3860    1.8790 C   0  0  0  0  0  0  0  0  0  0  0  0
   -0.8193   -3.8488    2.3212 C   0  0  0  0  0  0  0  0  0  0  0  0
   -2.2009   -4.4504    2.3028 C   0  0  0  0  0  0  0  0  0  0  0  0
   -3.2608   -3.7316    1.7825 C   0  0  0  0  0  0  0  0  0  0  0  0
   -4.5282   -4.2834    1.7656 C   0  0  0  0  0  0  0  0  0  0  0  0
   -4.7355   -5.5542    2.2687 C   0  0  0  0  0  0  0  0  0  0  0  0
   -3.6754   -6.2733    2.7882 C   0  0  0  0  0  0  0  0  0  0  0  0
   -2.4073   -5.7232    2.8012 C   0  0  0  0  0  0  0  0  0  0  0  0
    0.0741   -4.6135    1.3788 C   0  0  0  0  0  0  0  0  0  0  0  0
    1.4330   -4.3607    1.3567 C   0  0  0  0  0  0  0  0  0  0  0  0
    2.2525   -5.0621    0.4923 C   0  0  0  0  0  0  0  0  0  0  0  0
    1.7132   -6.0166   -0.3498 C   0  0  0  0  0  0  0  0  0  0  0  0
    0.3545   -6.2701   -0.3270 C   0  0  0  0  0  0  0  0  0  0  0  0
   -0.4644   -5.5717    0.5405 C   0  0  0  0  0  0  0  0  0  0  0  0
   -0.2575   -3.9234    3.7176 C   0  0  0  0  0  0  0  0  0  0  0  0
    0.7674   -4.5371    3.9269 O   0  0  0  0  0  0  0  0  0  0  0  0
   -0.8941   -3.3082    4.7339 N   0  0  0  0  0  0  0  0  0  0  0  0
    1.5299    0.3652    2.4042 C   0  0  0  0  0  0  0  0  0  0  0  0
    2.7564    0.2677    1.4948 C   0  0  0  0  0  0  0  0  0  0  0  0
    1.1880    1.8372    2.6434 C   0  0  0  0  0  0  0  0  0  0  0  0
   -1.7013   -0.4854    0.4485 H   0  0  0  0  0  0  0  0  0  0  0  0
   -1.1849    0.1541   -1.1304 H   0  0  0  0  0  0  0  0  0  0  0  0
   -0.7786   -1.5169   -0.6710 H   0  0  0  0  0  0  0  0  0  0  0  0
    1.2375   -0.5176   -0.1477 H   0  0  0  0  0  0  0  0  0  0  0  0
   -0.2469    2.0153    0.6795 H   0  0  0  0  0  0  0  0  0  0  0  0
    1.5091    1.8301    0.4549 H   0  0  0  0  0  0  0  0  0  0  0  0
    0.4170    1.7296   -0.9471 H   0  0  0  0  0  0  0  0  0  0  0  0
   -1.7071   -0.3140    1.8815 H   0  0  0  0  0  0  0  0  0  0  0  0
   -0.8658   -0.0358    3.4253 H   0  0  0  0  0  0  0  0  0  0  0  0
   -0.9407    1.2594    2.2065 H   0  0  0  0  0  0  0  0  0  0  0  0
    1.1392   -2.1836    1.1967 H   0  0  0  0  0  0  0  0  0  0  0  0
    0.9252   -1.9539    2.9487 H   0  0  0  0  0  0  0  0  0  0  0  0
   -1.5801   -1.8443    2.5301 H   0  0  0  0  0  0  0  0  0  0  0  0
   -1.2523   -2.3352    0.8508 H   0  0  0  0  0  0  0  0  0  0  0  0
   -3.0989   -2.7388    1.3894 H   0  0  0  0  0  0  0  0  0  0  0  0
   -5.3564   -3.7216    1.3597 H   0  0  0  0  0  0  0  0  0  0  0  0
   -5.7257   -5.9850    2.2561 H   0  0  0  0  0  0  0  0  0  0  0  0
   -3.8374   -7.2660    3.1815 H   0  0  0  0  0  0  0  0  0  0  0  0
   -1.5783   -6.2865    3.2037 H   0  0  0  0  0  0  0  0  0  0  0  0
    1.8543   -3.6150    2.0146 H   0  0  0  0  0  0  0  0  0  0  0  0
    3.3140   -4.8641    0.4745 H   0  0  0  0  0  0  0  0  0  0  0  0
    2.3534   -6.5641   -1.0257 H   0  0  0  0  0  0  0  0  0  0  0  0
   -0.0669   -7.0156   -0.9851 H   0  0  0  0  0  0  0  0  0  0  0  0
   -1.5254   -5.7723    0.5609 H   0  0  0  0  0  0  0  0  0  0  0  0
   -1.7138   -2.8174    4.5664 H   0  0  0  0  0  0  0  0  0  0  0  0
   -0.5325   -3.3562    5.6326 H   0  0  0  0  0  0  0  0  0  0  0  0
    1.7452   -0.1173    3.3576 H   0  0  0  0  0  0  0  0  0  0  0  0
    3.0087   -0.7807    1.3362 H   0  0  0  0  0  0  0  0  0  0  0  0
    2.5363    0.7375    0.5362 H   0  0  0  0  0  0  0  0  0  0  0  0
    3.5982    0.7770    1.9642 H   0  0  0  0  0  0  0  0  0  0  0  0
    0.3023    1.9065    3.2749 H   0  0  0  0  0  0  0  0  0  0  0  0
    2.0259    2.3292    3.1374 H   0  0  0  0  0  0  0  0  0  0  0  0
    0.9923    2.3246    1.6883 H   0  0  0  0  0  0  0  0  0  0  0  0
  1  2  1  0  0  0  0
  1 27  1  0  0  0  0
  1 28  1  0  0  0  0
  1 29  1  0  0  0  0
  2  3  1  0  0  0  0
  2  4  1  0  0  0  0
  2 30  1  0  0  0  0
  3 31  1  0  0  0  0
  3 32  1  0  0  0  0
  3 33  1  0  0  0  0
  4  5  1  0  0  0  0
  4  6  1  0  0  0  0
  4 24  1  0  0  0  0
  5 34  1  0  0  0  0
  5 35  1  0  0  0  0
  5 36  1  0  0  0  0
  6  7  1  0  0  0  0
  6 37  1  0  0  0  0
  6 38  1  0  0  0  0
  7  8  1  0  0  0  0
  7 39  1  0  0  0  0
  7 40  1  0  0  0  0
  8  9  1  0  0  0  0
  8 15  1  0  0  0  0
  8 21  1  0  0  0  0
  9 14  2  0  0  0  0
  9 10  1  0  0  0  0
 10 11  2  0  0  0  0
 10 41  1  0  0  0  0
 11 12  1  0  0  0  0
 11 42  1  0  0  0  0
 12 13  2  0  0  0  0
 12 43  1  0  0  0  0
 13 14  1  0  0  0  0
 13 44  1  0  0  0  0
 14 45  1  0  0  0  0
 15 20  2  0  0  0  0
 15 16  1  0  0  0  0
 16 17  2  0  0  0  0
 16 46  1  0  0  0  0
 17 18  1  0  0  0  0
 17 47  1  0  0  0  0
 18 19  2  0  0  0  0
 18 48  1  0  0  0  0
 19 20  1  0  0  0  0
 19 49  1  0  0  0  0
 20 50  1  0  0  0  0
 21 22  2  0  0  0  0
 21 23  1  0  0  0  0
 23 51  1  0  0  0  0
 23 52  1  0  0  0  0
 24 25  1  0  0  0  0
 24 26  1  0  0  0  0
 24 53  1  0  0  0  0
 25 54  1  0  0  0  0
 25 55  1  0  0  0  0
 25 56  1  0  0  0  0
 26 57  1  0  0  0  0
 26 58  1  0  0  0  0
 26 59  1  0  0  0  0
M  CHG  1   4   1
M  END
$$$$
