ZINC00004760
 OpenBabel08292219463D

 51 53  0  0  1  0  0  0  0  0999 V2000
   -0.1070    1.1917   -0.2893 C   0  0  0  0  0  0  0  0  0  0  0  0
    0.0626   -0.0879   -0.7842 C   0  0  0  0  0  0  0  0  0  0  0  0
    1.2982   -0.7023   -0.7029 C   0  0  0  0  0  0  0  0  0  0  0  0
    2.3644   -0.0369   -0.1271 C   0  0  0  0  0  0  0  0  0  0  0  0
    2.1950    1.2429    0.3670 C   0  0  0  0  0  0  0  0  0  0  0  0
    0.9590    1.8568    0.2869 C   0  0  0  0  0  0  0  0  0  0  0  0
    3.7112   -0.7071   -0.0376 C   0  0  2  0  0  0  0  0  0  0  0  0
    4.2058   -1.0479   -1.4447 C   0  0  0  0  0  0  0  0  0  0  0  0
    4.3289    0.2364   -2.2670 C   0  0  0  0  0  0  0  0  0  0  0  0
    4.8038   -0.0908   -3.6181 N   0  3  0  0  0  0  0  0  0  0  0  0
    3.7561   -0.8349   -4.3630 C   0  0  0  0  0  0  0  0  0  0  0  0
    4.1442   -0.6050   -5.8453 C   0  0  0  0  0  0  0  0  0  0  0  0
    4.6477    0.8567   -5.8481 C   0  0  0  0  0  0  0  0  0  0  0  0
    5.0431    1.1487   -4.3887 C   0  0  0  0  0  0  0  0  0  0  0  0
    3.5881   -1.9915    0.7847 C   0  0  0  0  0  0  0  0  0  0  0  0
    3.0987   -1.6501    2.1936 C   0  0  0  0  0  0  0  0  0  0  0  0
    2.9756   -2.9344    3.0159 C   0  0  0  0  0  0  0  0  0  0  0  0
    4.3418   -3.6177    3.1022 C   0  0  0  0  0  0  0  0  0  0  0  0
    4.8312   -3.9591    1.6934 C   0  0  0  0  0  0  0  0  0  0  0  0
    4.9543   -2.6747    0.8711 C   0  0  0  0  0  0  0  0  0  0  0  0
    4.6413    0.1753    0.5936 O   0  0  0  0  0  0  0  0  0  0  0  0
   -1.0713    1.6734   -0.3569 H   0  0  0  0  0  0  0  0  0  0  0  0
   -0.7704   -0.6077   -1.2341 H   0  0  0  0  0  0  0  0  0  0  0  0
    1.4305   -1.7022   -1.0889 H   0  0  0  0  0  0  0  0  0  0  0  0
    3.0279    1.7626    0.8171 H   0  0  0  0  0  0  0  0  0  0  0  0
    0.8266    2.8566    0.6733 H   0  0  0  0  0  0  0  0  0  0  0  0
    5.1799   -1.5327   -1.3800 H   0  0  0  0  0  0  0  0  0  0  0  0
    3.4963   -1.7210   -1.9261 H   0  0  0  0  0  0  0  0  0  0  0  0
    3.3548    0.7211   -2.3318 H   0  0  0  0  0  0  0  0  0  0  0  0
    5.0384    0.9095   -1.7856 H   0  0  0  0  0  0  0  0  0  0  0  0
    3.7894   -1.8962   -4.1168 H   0  0  0  0  0  0  0  0  0  0  0  0
    2.7693   -0.4214   -4.1551 H   0  0  0  0  0  0  0  0  0  0  0  0
    4.9391   -1.2873   -6.1462 H   0  0  0  0  0  0  0  0  0  0  0  0
    3.2745   -0.7146   -6.4932 H   0  0  0  0  0  0  0  0  0  0  0  0
    5.5139    0.9572   -6.5021 H   0  0  0  0  0  0  0  0  0  0  0  0
    3.8521    1.5303   -6.1665 H   0  0  0  0  0  0  0  0  0  0  0  0
    4.4286    1.9569   -3.9921 H   0  0  0  0  0  0  0  0  0  0  0  0
    6.0974    1.4204   -4.3369 H   0  0  0  0  0  0  0  0  0  0  0  0
    2.8757   -2.6629    0.3054 H   0  0  0  0  0  0  0  0  0  0  0  0
    3.8111   -0.9786    2.6729 H   0  0  0  0  0  0  0  0  0  0  0  0
    2.1253   -1.1633    2.1321 H   0  0  0  0  0  0  0  0  0  0  0  0
    2.6269   -2.6912    4.0196 H   0  0  0  0  0  0  0  0  0  0  0  0
    2.2632   -3.6059    2.5366 H   0  0  0  0  0  0  0  0  0  0  0  0
    5.0542   -2.9462    3.5816 H   0  0  0  0  0  0  0  0  0  0  0  0
    4.2541   -4.5327    3.6880 H   0  0  0  0  0  0  0  0  0  0  0  0
    5.8046   -4.4458    1.7549 H   0  0  0  0  0  0  0  0  0  0  0  0
    4.1188   -4.6305    1.2140 H   0  0  0  0  0  0  0  0  0  0  0  0
    5.3030   -2.9179   -0.1326 H   0  0  0  0  0  0  0  0  0  0  0  0
    5.6667   -2.0033    1.3504 H   0  0  0  0  0  0  0  0  0  0  0  0
    5.5314   -0.1914    0.6850 H   0  0  0  0  0  0  0  0  0  0  0  0
    5.6503   -0.6375   -3.5669 H   0  0  0  0  0  0  0  0  0  0  0  0
  1  6  2  0  0  0  0
  1  2  1  0  0  0  0
  1 22  1  0  0  0  0
  2  3  2  0  0  0  0
  2 23  1  0  0  0  0
  3  4  1  0  0  0  0
  3 24  1  0  0  0  0
  4  5  2  0  0  0  0
  4  7  1  0  0  0  0
  5  6  1  0  0  0  0
  5 25  1  0  0  0  0
  6 26  1  0  0  0  0
  7  8  1  0  0  0  0
  7 15  1  0  0  0  0
  7 21  1  1  0  0  0
  8  9  1  0  0  0  0
  8 27  1  0  0  0  0
  8 28  1  0  0  0  0
  9 10  1  0  0  0  0
  9 29  1  0  0  0  0
  9 30  1  0  0  0  0
 10 14  1  0  0  0  0
 10 11  1  0  0  0  0
 10 51  1  0  0  0  0
 11 12  1  0  0  0  0
 11 31  1  0  0  0  0
 11 32  1  0  0  0  0
 12 13  1  0  0  0  0
 12 33  1  0  0  0  0
 12 34  1  0  0  0  0
 13 14  1  0  0  0  0
 13 35  1  0  0  0  0
 13 36  1  0  0  0  0
 14 37  1  0  0  0  0
 14 38  1  0  0  0  0
 15 20  1  0  0  0  0
 15 16  1  0  0  0  0
 15 39  1  0  0  0  0
 16 17  1  0  0  0  0
 16 40  1  0  0  0  0
 16 41  1  0  0  0  0
 17 18  1  0  0  0  0
 17 42  1  0  0  0  0
 17 43  1  0  0  0  0
 18 19  1  0  0  0  0
 18 44  1  0  0  0  0
 18 45  1  0  0  0  0
 19 20  1  0  0  0  0
 19 46  1  0  0  0  0
 19 47  1  0  0  0  0
 20 48  1  0  0  0  0
 20 49  1  0  0  0  0
 21 50  1  0  0  0  0
M  CHG  1  10   1
M  END
$$$$
