ZINC00523926
 OpenBabel08292219463D

 42 44  0  0  1  0  0  0  0  0999 V2000
   -0.0184    1.5028    0.0103 C   0  0  0  0  0  0  0  0  0  0  0  0
    0.0021   -0.0041    0.0020 C   0  0  0  0  0  0  0  0  0  0  0  0
    0.0057   -0.6887   -1.1989 C   0  0  0  0  0  0  0  0  0  0  0  0
    0.0245   -2.0709   -1.2065 C   0  0  0  0  0  0  0  0  0  0  0  0
    0.0400   -2.7685   -0.0132 C   0  0  0  0  0  0  0  0  0  0  0  0
    0.0373   -2.0839    1.1877 C   0  0  0  0  0  0  0  0  0  0  0  0
    0.0229   -0.7016    1.1953 C   0  0  0  0  0  0  0  0  0  0  0  0
    0.0628   -4.5303   -0.0229 S   0  0  0  0  0  0  0  0  0  0  0  0
   -0.4759   -4.9503    1.2232 O   0  0  0  0  0  0  0  0  0  0  0  0
   -0.4897   -4.9367   -1.2674 O   0  0  0  0  0  0  0  0  0  0  0  0
    1.6509   -4.9994   -0.0343 N   0  0  0  0  0  0  0  0  0  0  0  0
    1.9555   -6.2642   -0.0428 C   0  0  0  0  0  0  0  0  0  0  0  0
    0.9762   -7.1949   -0.0424 O   0  5  0  0  0  0  0  0  0  0  0  0
    3.2726   -6.6533   -0.0522 N   0  0  0  0  0  0  0  0  0  0  0  0
    4.2627   -5.7123   -0.0526 N   0  0  0  0  0  0  0  0  0  0  0  0
    5.1314   -5.8463   -1.2685 C   0  0  0  0  0  0  0  0  0  0  0  0
    6.4885   -5.4158   -0.7499 C   0  0  2  0  0  0  0  0  0  0  0  0
    6.5177   -4.3411   -0.5706 H   0  0  0  0  0  0  0  0  0  0  0  0
    7.7973   -5.9074   -1.3356 C   0  0  0  0  0  0  0  0  0  0  0  0
    8.7548   -5.8139   -0.1034 C   0  0  0  0  0  0  0  0  0  0  0  0
    7.8393   -5.9263    1.1547 C   0  0  0  0  0  0  0  0  0  0  0  0
    6.4806   -6.2306    0.6016 C   0  0  1  0  0  0  0  0  0  0  0  0
    6.4533   -7.2903    0.3476 H   0  0  0  0  0  0  0  0  0  0  0  0
    5.1397   -5.8558    1.1521 C   0  0  0  0  0  0  0  0  0  0  0  0
    1.0042    1.8801    0.0026 H   0  0  0  0  0  0  0  0  0  0  0  0
   -0.5455    1.8639   -0.8728 H   0  0  0  0  0  0  0  0  0  0  0  0
   -0.5286    1.8543    0.9071 H   0  0  0  0  0  0  0  0  0  0  0  0
   -0.0064   -0.1436   -2.1312 H   0  0  0  0  0  0  0  0  0  0  0  0
    0.0266   -2.6057   -2.1448 H   0  0  0  0  0  0  0  0  0  0  0  0
    0.0491   -2.6289    2.1200 H   0  0  0  0  0  0  0  0  0  0  0  0
    0.0245   -0.1667    2.1335 H   0  0  0  0  0  0  0  0  0  0  0  0
    3.4997   -7.5963   -0.0586 H   0  0  0  0  0  0  0  0  0  0  0  0
    5.1585   -6.8801   -1.6130 H   0  0  0  0  0  0  0  0  0  0  0  0
    4.7915   -5.1812   -2.0624 H   0  0  0  0  0  0  0  0  0  0  0  0
    7.7071   -6.9369   -1.6821 H   0  0  0  0  0  0  0  0  0  0  0  0
    8.1335   -5.2545   -2.1411 H   0  0  0  0  0  0  0  0  0  0  0  0
    9.4720   -6.6344   -0.1212 H   0  0  0  0  0  0  0  0  0  0  0  0
    9.2768   -4.8570   -0.1044 H   0  0  0  0  0  0  0  0  0  0  0  0
    8.1820   -6.7303    1.8060 H   0  0  0  0  0  0  0  0  0  0  0  0
    7.8142   -4.9799    1.6948 H   0  0  0  0  0  0  0  0  0  0  0  0
    5.2012   -4.9109    1.6920 H   0  0  0  0  0  0  0  0  0  0  0  0
    4.7630   -6.6435    1.8046 H   0  0  0  0  0  0  0  0  0  0  0  0
  1  2  1  0  0  0  0
  1 25  1  0  0  0  0
  1 26  1  0  0  0  0
  1 27  1  0  0  0  0
  2  7  2  0  0  0  0
  2  3  1  0  0  0  0
  3  4  2  0  0  0  0
  3 28  1  0  0  0  0
  4  5  1  0  0  0  0
  4 29  1  0  0  0  0
  5  6  2  0  0  0  0
  5  8  1  0  0  0  0
  6  7  1  0  0  0  0
  6 30  1  0  0  0  0
  7 31  1  0  0  0  0
  8  9  2  0  0  0  0
  8 10  2  0  0  0  0
  8 11  1  0  0  0  0
 11 12  2  0  0  0  0
 12 13  1  0  0  0  0
 12 14  1  0  0  0  0
 14 15  1  0  0  0  0
 14 32  1  0  0  0  0
 15 24  1  0  0  0  0
 15 16  1  0  0  0  0
 16 17  1  0  0  0  0
 16 33  1  0  0  0  0
 16 34  1  0  0  0  0
 17 18  1  1  0  0  0
 17 22  1  0  0  0  0
 17 19  1  0  0  0  0
 19 20  1  0  0  0  0
 19 35  1  0  0  0  0
 19 36  1  0  0  0  0
 20 21  1  0  0  0  0
 20 37  1  0  0  0  0
 20 38  1  0  0  0  0
 21 22  1  0  0  0  0
 21 39  1  0  0  0  0
 21 40  1  0  0  0  0
 22 23  1  6  0  0  0
 22 24  1  0  0  0  0
 24 41  1  0  0  0  0
 24 42  1  0  0  0  0
M  CHG  1  13  -1
M  END
$$$$
