ZINC03861599
 OpenBabel08292219463D

 61 65  0  0  1  0  0  0  0  0999 V2000
   -0.0184    1.5028    0.0103 C   0  0  0  0  0  0  0  0  0  0  0  0
    0.0021   -0.0041    0.0020 C   0  0  0  0  0  0  0  0  0  0  0  0
    1.0609   -0.5963   -0.0113 O   0  0  0  0  0  0  0  0  0  0  0  0
   -1.4241   -0.8535    0.0111 S   0  0  0  0  0  0  0  0  0  0  0  0
   -0.9005   -2.5903   -0.0033 C   0  0  2  0  0  0  0  0  0  0  0  0
   -0.2231   -2.7735    0.8309 H   0  0  0  0  0  0  0  0  0  0  0  0
   -0.1848   -2.8979   -1.3203 C   0  0  0  0  0  0  0  0  0  0  0  0
   -1.1754   -2.7526   -2.4610 C   0  0  0  0  0  0  0  0  0  0  0  0
   -0.8008   -2.0328   -3.5185 C   0  0  0  0  0  0  0  0  0  0  0  0
   -1.7119   -1.8719   -4.6568 C   0  0  0  0  0  0  0  0  0  0  0  0
   -1.5963   -0.9548   -5.4427 O   0  0  0  0  0  0  0  0  0  0  0  0
   -2.8054   -2.9124   -4.7998 C   0  0  0  0  0  0  0  0  0  0  0  0
   -3.4907   -3.0448   -3.4405 C   0  0  0  0  0  0  0  0  0  0  0  0
   -2.5067   -3.4292   -2.3500 C   0  0  2  0  0  0  0  0  0  0  0  0
   -3.1324   -3.1361   -0.9805 C   0  0  2  0  0  0  0  0  0  0  0  0
   -3.3553   -2.0713   -0.9129 H   0  0  0  0  0  0  0  0  0  0  0  0
   -2.1284   -3.4962    0.1260 C   0  0  2  0  0  0  0  0  0  0  0  0
   -1.8316   -4.5409    0.0333 H   0  0  0  0  0  0  0  0  0  0  0  0
   -2.8065   -3.2536    1.4620 C   0  0  2  0  0  0  0  0  0  0  0  0
   -3.1622   -2.2252    1.5250 H   0  0  0  0  0  0  0  0  0  0  0  0
   -1.9786   -3.6091    2.7028 C   0  0  0  0  0  0  0  0  0  0  0  0
   -3.0641   -3.8464    3.7912 C   0  0  0  0  0  0  0  0  0  0  0  0
   -4.3520   -4.2185    3.0328 C   0  0  2  0  0  0  0  0  0  0  0  0
   -3.9981   -4.2470    1.5548 C   0  0  1  0  0  0  0  0  0  0  0  0
   -5.0436   -3.7809    0.5608 C   0  0  0  0  0  0  0  0  0  0  0  0
   -4.4313   -3.9253   -0.8461 C   0  0  0  0  0  0  0  0  0  0  0  0
   -3.5271   -5.6532    1.1784 C   0  0  0  0  0  0  0  0  0  0  0  0
   -5.4589   -3.1890    3.3175 C   0  0  0  0  0  0  0  0  0  0  0  0
   -6.2810   -3.8924    4.4267 C   0  0  0  0  0  0  0  0  0  0  0  0
   -5.5352   -5.1989    4.6547 C   0  0  0  0  0  0  0  0  0  0  0  0
   -5.5324   -5.8644    5.6632 O   0  0  0  0  0  0  0  0  0  0  0  0
   -4.8739   -5.4684    3.5007 O   0  0  0  0  0  0  0  0  0  0  0  0
   -2.2779   -4.9398   -2.4307 C   0  0  0  0  0  0  0  0  0  0  0  0
    1.0042    1.8801    0.0026 H   0  0  0  0  0  0  0  0  0  0  0  0
   -0.5455    1.8639   -0.8728 H   0  0  0  0  0  0  0  0  0  0  0  0
   -0.5286    1.8543    0.9071 H   0  0  0  0  0  0  0  0  0  0  0  0
    0.6390   -2.1980   -1.4605 H   0  0  0  0  0  0  0  0  0  0  0  0
    0.1995   -3.9176   -1.2978 H   0  0  0  0  0  0  0  0  0  0  0  0
    0.1736   -1.5675   -3.5370 H   0  0  0  0  0  0  0  0  0  0  0  0
   -3.5282   -2.5897   -5.5493 H   0  0  0  0  0  0  0  0  0  0  0  0
   -2.3710   -3.8689   -5.0905 H   0  0  0  0  0  0  0  0  0  0  0  0
   -3.9536   -2.0925   -3.1816 H   0  0  0  0  0  0  0  0  0  0  0  0
   -4.2653   -3.8089   -3.5059 H   0  0  0  0  0  0  0  0  0  0  0  0
   -1.3988   -4.5162    2.5325 H   0  0  0  0  0  0  0  0  0  0  0  0
   -1.3274   -2.7808    2.9820 H   0  0  0  0  0  0  0  0  0  0  0  0
   -2.7654   -4.6639    4.4474 H   0  0  0  0  0  0  0  0  0  0  0  0
   -3.2196   -2.9365    4.3710 H   0  0  0  0  0  0  0  0  0  0  0  0
   -5.9363   -4.4010    0.6426 H   0  0  0  0  0  0  0  0  0  0  0  0
   -5.2965   -2.7376    0.7498 H   0  0  0  0  0  0  0  0  0  0  0  0
   -5.1455   -3.5623   -1.5851 H   0  0  0  0  0  0  0  0  0  0  0  0
   -4.2282   -4.9789   -1.0382 H   0  0  0  0  0  0  0  0  0  0  0  0
   -2.7398   -5.9681    1.8633 H   0  0  0  0  0  0  0  0  0  0  0  0
   -4.3652   -6.3470    1.2446 H   0  0  0  0  0  0  0  0  0  0  0  0
   -3.1408   -5.6463    0.1592 H   0  0  0  0  0  0  0  0  0  0  0  0
   -5.0346   -2.2537    3.6826 H   0  0  0  0  0  0  0  0  0  0  0  0
   -6.0691   -3.0196    2.4303 H   0  0  0  0  0  0  0  0  0  0  0  0
   -6.2891   -3.2921    5.3365 H   0  0  0  0  0  0  0  0  0  0  0  0
   -7.2978   -4.0862    4.0853 H   0  0  0  0  0  0  0  0  0  0  0  0
   -1.6274   -5.2529   -1.6141 H   0  0  0  0  0  0  0  0  0  0  0  0
   -3.2342   -5.4569   -2.3522 H   0  0  0  0  0  0  0  0  0  0  0  0
   -1.8090   -5.1859   -3.3835 H   0  0  0  0  0  0  0  0  0  0  0  0
  1  2  1  0  0  0  0
  1 34  1  0  0  0  0
  1 35  1  0  0  0  0
  1 36  1  0  0  0  0
  2  3  2  0  0  0  0
  2  4  1  0  0  0  0
  4  5  1  0  0  0  0
  5  6  1  1  0  0  0
  5 17  1  0  0  0  0
  5  7  1  0  0  0  0
  7  8  1  0  0  0  0
  7 37  1  0  0  0  0
  7 38  1  0  0  0  0
  8 14  1  0  0  0  0
  8  9  2  0  0  0  0
  9 10  1  0  0  0  0
  9 39  1  0  0  0  0
 10 11  2  0  0  0  0
 10 12  1  0  0  0  0
 12 13  1  0  0  0  0
 12 40  1  0  0  0  0
 12 41  1  0  0  0  0
 13 14  1  0  0  0  0
 13 42  1  0  0  0  0
 13 43  1  0  0  0  0
 14 15  1  0  0  0  0
 14 33  1  6  0  0  0
 15 16  1  1  0  0  0
 15 26  1  0  0  0  0
 15 17  1  0  0  0  0
 17 18  1  6  0  0  0
 17 19  1  0  0  0  0
 19 20  1  1  0  0  0
 19 24  1  0  0  0  0
 19 21  1  0  0  0  0
 21 22  1  0  0  0  0
 21 44  1  0  0  0  0
 21 45  1  0  0  0  0
 22 23  1  0  0  0  0
 22 46  1  0  0  0  0
 22 47  1  0  0  0  0
 23 32  1  1  0  0  0
 23 24  1  0  0  0  0
 23 28  1  0  0  0  0
 24 25  1  0  0  0  0
 24 27  1  6  0  0  0
 25 26  1  0  0  0  0
 25 48  1  0  0  0  0
 25 49  1  0  0  0  0
 26 50  1  0  0  0  0
 26 51  1  0  0  0  0
 27 52  1  0  0  0  0
 27 53  1  0  0  0  0
 27 54  1  0  0  0  0
 28 29  1  0  0  0  0
 28 55  1  0  0  0  0
 28 56  1  0  0  0  0
 29 30  1  0  0  0  0
 29 57  1  0  0  0  0
 29 58  1  0  0  0  0
 30 31  2  0  0  0  0
 30 32  1  0  0  0  0
 33 59  1  0  0  0  0
 33 60  1  0  0  0  0
 33 61  1  0  0  0  0
M  END
$$$$
