ZINC00020253
 OpenBabel08292219463D

 33 35  0  0  1  0  0  0  0  0999 V2000
   -0.0166    1.3752    0.0096 C   0  0  0  0  0  0  0  0  0  0  0  0
    1.1683    2.0900    0.0021 C   0  0  0  0  0  0  0  0  0  0  0  0
    2.3827    1.4248   -0.0135 C   0  0  0  0  0  0  0  0  0  0  0  0
    2.4125    0.0494   -0.0211 C   0  0  0  0  0  0  0  0  0  0  0  0
    1.2226   -0.6819   -0.0132 C   0  0  0  0  0  0  0  0  0  0  0  0
    0.0021   -0.0041    0.0020 C   0  0  0  0  0  0  0  0  0  0  0  0
    1.5619   -2.1178   -0.0242 C   0  0  0  0  0  0  0  0  0  0  0  0
    0.7510   -3.0233   -0.0214 O   0  0  0  0  0  0  0  0  0  0  0  0
    2.8961   -2.2814   -0.0383 N   0  0  0  0  0  0  0  0  0  0  0  0
    3.5334   -0.9597   -0.0376 C   0  0  1  0  0  0  0  0  0  0  0  0
    4.3679   -0.7865   -1.2804 C   0  0  0  0  0  0  0  0  0  0  0  0
    4.0419   -1.4766   -2.4333 C   0  0  0  0  0  0  0  0  0  0  0  0
    4.8071   -1.3185   -3.5732 C   0  0  0  0  0  0  0  0  0  0  0  0
    5.8993   -0.4690   -3.5607 C   0  0  0  0  0  0  0  0  0  0  0  0
    6.2246    0.2215   -2.4071 C   0  0  0  0  0  0  0  0  0  0  0  0
    5.4554    0.0665   -1.2690 C   0  0  0  0  0  0  0  0  0  0  0  0
    7.6152    1.3034   -2.3902 S   0  0  0  0  0  0  0  0  0  0  0  0
    7.5000    2.1308   -3.5397 O   0  0  0  0  0  0  0  0  0  0  0  0
    7.7008    1.8343   -1.0749 O   0  0  0  0  0  0  0  0  0  0  0  0
    8.9647    0.3697   -2.6124 N   0  0  0  0  0  0  0  0  0  0  0  0
    6.8613   -0.2704   -4.9921 Cl  0  0  0  0  0  0  0  0  0  0  0  0
    4.3479   -0.8079    1.1267 O   0  0  0  0  0  0  0  0  0  0  0  0
   -0.9606    1.8997    0.0259 H   0  0  0  0  0  0  0  0  0  0  0  0
    1.1458    3.1698    0.0081 H   0  0  0  0  0  0  0  0  0  0  0  0
    3.3058    1.9854   -0.0200 H   0  0  0  0  0  0  0  0  0  0  0  0
   -0.9249   -0.5581    0.0082 H   0  0  0  0  0  0  0  0  0  0  0  0
    3.3608   -3.1327   -0.0474 H   0  0  0  0  0  0  0  0  0  0  0  0
    3.1894   -2.1396   -2.4430 H   0  0  0  0  0  0  0  0  0  0  0  0
    4.5528   -1.8582   -4.4735 H   0  0  0  0  0  0  0  0  0  0  0  0
    5.7069    0.6087   -0.3694 H   0  0  0  0  0  0  0  0  0  0  0  0
    9.7436    0.7408   -3.0557 H   0  0  0  0  0  0  0  0  0  0  0  0
    8.9763   -0.5484   -2.2994 H   0  0  0  0  0  0  0  0  0  0  0  0
    5.0869   -1.4298    1.1735 H   0  0  0  0  0  0  0  0  0  0  0  0
  1  6  2  0  0  0  0
  1  2  1  0  0  0  0
  1 23  1  0  0  0  0
  2  3  2  0  0  0  0
  2 24  1  0  0  0  0
  3  4  1  0  0  0  0
  3 25  1  0  0  0  0
  4 10  1  0  0  0  0
  4  5  2  0  0  0  0
  5  6  1  0  0  0  0
  5  7  1  0  0  0  0
  6 26  1  0  0  0  0
  7  8  2  0  0  0  0
  7  9  1  0  0  0  0
  9 10  1  0  0  0  0
  9 27  1  0  0  0  0
 10 11  1  0  0  0  0
 10 22  1  1  0  0  0
 11 16  2  0  0  0  0
 11 12  1  0  0  0  0
 12 13  2  0  0  0  0
 12 28  1  0  0  0  0
 13 14  1  0  0  0  0
 13 29  1  0  0  0  0
 14 15  2  0  0  0  0
 14 21  1  0  0  0  0
 15 16  1  0  0  0  0
 15 17  1  0  0  0  0
 16 30  1  0  0  0  0
 17 18  2  0  0  0  0
 17 19  2  0  0  0  0
 17 20  1  0  0  0  0
 20 31  1  0  0  0  0
 20 32  1  0  0  0  0
 22 33  1  0  0  0  0
M  END
$$$$
