ZINC21297783
 OpenBabel08292219463D

 57 56  0  0  1  0  0  0  0  0999 V2000
   -5.1276   -7.0092   -5.0216 C   0  0  0  0  0  0  0  0  0  0  0  0
   -3.6850   -6.7590   -5.0727 N   0  0  0  0  0  0  0  0  0  0  0  0
   -3.1004   -5.9918   -4.1314 C   0  0  0  0  0  0  0  0  0  0  0  0
   -3.7685   -5.5086   -3.2420 O   0  0  0  0  0  0  0  0  0  0  0  0
   -1.6165   -5.7344   -4.1840 C   0  0  0  0  0  0  0  0  0  0  0  0
   -1.2266   -4.8839   -3.0515 N   0  3  2  0  0  0  0  0  0  0  0  0
   -1.5989   -3.4834   -3.2923 C   0  0  0  0  0  0  0  0  0  0  0  0
   -1.4088   -2.6767   -2.0062 C   0  0  0  0  0  0  0  0  0  0  0  0
   -1.9134   -1.3116   -2.2053 N   0  0  0  0  0  0  0  0  0  0  0  0
   -1.9173   -0.5622   -0.9418 C   0  0  0  0  0  0  0  0  0  0  0  0
   -2.6730    0.7545   -1.1321 C   0  0  0  0  0  0  0  0  0  0  0  0
   -2.7900    1.4430    0.1603 N   0  3  2  0  0  0  0  0  0  0  0  0
   -3.8543    2.4549    0.1232 C   0  0  0  0  0  0  0  0  0  0  0  0
   -4.1117    2.9645    1.5178 C   0  0  0  0  0  0  0  0  0  0  0  0
   -3.4716    2.5278    2.4508 O   0  0  0  0  0  0  0  0  0  0  0  0
   -5.0533    3.9056    1.7283 N   0  0  0  0  0  0  0  0  0  0  0  0
   -5.3036    4.4010    3.0841 C   0  0  0  0  0  0  0  0  0  0  0  0
   -1.5081    2.0416    0.5558 C   0  0  0  0  0  0  0  0  0  0  0  0
   -1.1103    3.0887   -0.4524 C   0  0  0  0  0  0  0  0  0  0  0  0
   -1.8138    3.3023   -1.4112 O   0  0  0  0  0  0  0  0  0  0  0  0
    0.0228    3.7879   -0.2823 O   0  0  0  0  0  1  0  0  0  0  0  0
   -1.1348   -0.6071   -3.2327 C   0  0  0  0  0  0  0  0  0  0  0  0
    0.2880   -0.4467   -2.7627 C   0  0  0  0  0  0  0  0  0  0  0  0
    0.6377   -0.9391   -1.7163 O   0  0  0  0  0  0  0  0  0  0  0  0
    1.1668    0.2434   -3.5066 O   0  0  0  0  0  1  0  0  0  0  0  0
    0.2103   -5.0060   -2.7716 C   0  0  0  0  0  0  0  0  0  0  0  0
    0.4855   -6.3419   -2.1309 C   0  0  0  0  0  0  0  0  0  0  0  0
   -0.4322   -7.0675   -1.8286 O   0  0  0  0  0  0  0  0  0  0  0  0
    1.7501   -6.7259   -1.8961 O   0  0  0  0  0  1  0  0  0  0  0  0
   -5.4185   -7.6513   -5.8661 H   0  0  0  0  0  0  0  0  0  0  0  0
   -5.6680   -6.0532   -5.0847 H   0  0  0  0  0  0  0  0  0  0  0  0
   -5.3794   -7.5110   -4.0757 H   0  0  0  0  0  0  0  0  0  0  0  0
   -3.0790   -7.1973   -5.8793 H   0  0  0  0  0  0  0  0  0  0  0  0
   -1.0762   -6.6909   -4.1273 H   0  0  0  0  0  0  0  0  0  0  0  0
   -1.3656   -5.2269   -5.1271 H   0  0  0  0  0  0  0  0  0  0  0  0
   -0.9609   -3.0655   -4.0849 H   0  0  0  0  0  0  0  0  0  0  0  0
   -2.6524   -3.4325   -3.6047 H   0  0  0  0  0  0  0  0  0  0  0  0
   -1.9638   -3.1569   -1.1868 H   0  0  0  0  0  0  0  0  0  0  0  0
   -0.3393   -2.6388   -1.7518 H   0  0  0  0  0  0  0  0  0  0  0  0
   -2.4127   -1.1600   -0.1625 H   0  0  0  0  0  0  0  0  0  0  0  0
   -0.8816   -0.3500   -0.6382 H   0  0  0  0  0  0  0  0  0  0  0  0
   -2.1241    1.3934   -1.8396 H   0  0  0  0  0  0  0  0  0  0  0  0
   -3.6776    0.5467   -1.5292 H   0  0  0  0  0  0  0  0  0  0  0  0
   -3.5434    3.2906   -0.5210 H   0  0  0  0  0  0  0  0  0  0  0  0
   -4.7742    2.0050   -0.2784 H   0  0  0  0  0  0  0  0  0  0  0  0
   -5.6338    4.3017    0.8821 H   0  0  0  0  0  0  0  0  0  0  0  0
   -6.1006    5.1587    3.0563 H   0  0  0  0  0  0  0  0  0  0  0  0
   -4.3837    4.8510    3.4857 H   0  0  0  0  0  0  0  0  0  0  0  0
   -5.6145    3.5653    3.7283 H   0  0  0  0  0  0  0  0  0  0  0  0
   -1.6112    2.5074    1.5470 H   0  0  0  0  0  0  0  0  0  0  0  0
   -0.7354    1.2597    0.5967 H   0  0  0  0  0  0  0  0  0  0  0  0
   -1.1492   -1.1884   -4.1665 H   0  0  0  0  0  0  0  0  0  0  0  0
   -1.5760    0.3846   -3.4113 H   0  0  0  0  0  0  0  0  0  0  0  0
    0.7751   -4.9272   -3.7123 H   0  0  0  0  0  0  0  0  0  0  0  0
    0.5206   -4.2011   -2.0891 H   0  0  0  0  0  0  0  0  0  0  0  0
   -1.7747   -5.2315   -2.1633 H   0  0  0  0  0  0  0  0  0  0  0  0
   -3.0618    0.6942    0.9189 H   0  0  0  0  0  0  0  0  0  0  0  0
  1  2  1  0  0  0  0
  1 30  1  0  0  0  0
  1 31  1  0  0  0  0
  1 32  1  0  0  0  0
  2  3  1  0  0  0  0
  2 33  1  0  0  0  0
  3  4  2  0  0  0  0
  3  5  1  0  0  0  0
  5  6  1  0  0  0  0
  5 34  1  0  0  0  0
  5 35  1  0  0  0  0
  6  7  1  0  0  0  0
  6 26  1  0  0  0  0
  6 56  1  1  0  0  0
  7  8  1  0  0  0  0
  7 36  1  0  0  0  0
  7 37  1  0  0  0  0
  8  9  1  0  0  0  0
  8 38  1  0  0  0  0
  8 39  1  0  0  0  0
  9 10  1  0  0  0  0
  9 22  1  0  0  0  0
 10 11  1  0  0  0  0
 10 40  1  0  0  0  0
 10 41  1  0  0  0  0
 11 12  1  0  0  0  0
 11 42  1  0  0  0  0
 11 43  1  0  0  0  0
 12 13  1  0  0  0  0
 12 18  1  0  0  0  0
 12 57  1  1  0  0  0
 13 14  1  0  0  0  0
 13 44  1  0  0  0  0
 13 45  1  0  0  0  0
 14 15  2  0  0  0  0
 14 16  1  0  0  0  0
 16 17  1  0  0  0  0
 16 46  1  0  0  0  0
 17 47  1  0  0  0  0
 17 48  1  0  0  0  0
 17 49  1  0  0  0  0
 18 19  1  0  0  0  0
 18 50  1  0  0  0  0
 18 51  1  0  0  0  0
 19 20  2  0  0  0  0
 19 21  1  0  0  0  0
 22 23  1  0  0  0  0
 22 52  1  0  0  0  0
 22 53  1  0  0  0  0
 23 24  2  0  0  0  0
 23 25  1  0  0  0  0
 26 27  1  0  0  0  0
 26 54  1  0  0  0  0
 26 55  1  0  0  0  0
 27 28  2  0  0  0  0
 27 29  1  0  0  0  0
M  CHG  2   6   1  12   1
M  END
$$$$
