ZINC00056652
 OpenBabel08292219463D

 33 33  0  0  1  0  0  0  0  0999 V2000
   -0.0187    1.5258    0.0104 C   0  0  0  0  0  0  0  0  0  0  0  0
    0.0021   -0.0041    0.0020 C   0  0  0  0  0  0  0  0  0  0  0  0
    0.7182   -0.4975   -1.2568 C   0  0  0  0  0  0  0  0  0  0  0  0
    0.7126   -0.4907    1.1921 N   0  3  0  0  0  0  0  0  0  0  0  0
   -0.0398   -0.1189    2.3978 C   0  0  0  0  0  0  0  0  0  0  0  0
    0.7001   -0.6257    3.6373 C   0  0  1  0  0  0  0  0  0  0  0  0
    1.6931   -0.1778    3.6761 H   0  0  0  0  0  0  0  0  0  0  0  0
   -0.0717   -0.2443    4.8741 C   0  0  0  0  0  0  0  0  0  0  0  0
   -1.0976   -1.0545    5.3242 C   0  0  0  0  0  0  0  0  0  0  0  0
   -1.8086   -0.7090    6.4582 C   0  0  0  0  0  0  0  0  0  0  0  0
   -1.4934    0.4515    7.1468 C   0  0  0  0  0  0  0  0  0  0  0  0
   -0.4606    1.2667    6.6941 C   0  0  0  0  0  0  0  0  0  0  0  0
    0.2513    0.9121    5.5594 C   0  0  0  0  0  0  0  0  0  0  0  0
   -0.1475    2.4066    7.3664 O   0  0  0  0  0  0  0  0  0  0  0  0
   -2.1922    0.7931    8.2624 O   0  0  0  0  0  0  0  0  0  0  0  0
    0.8214   -2.0480    3.5713 O   0  0  0  0  0  0  0  0  0  0  0  0
    1.0039    1.9031    0.0027 H   0  0  0  0  0  0  0  0  0  0  0  0
   -0.5459    1.8868   -0.8726 H   0  0  0  0  0  0  0  0  0  0  0  0
   -0.5289    1.8773    0.9072 H   0  0  0  0  0  0  0  0  0  0  0  0
   -1.0205   -0.3814    0.0098 H   0  0  0  0  0  0  0  0  0  0  0  0
    1.7408   -0.1202   -1.2645 H   0  0  0  0  0  0  0  0  0  0  0  0
    0.7330   -1.5874   -1.2628 H   0  0  0  0  0  0  0  0  0  0  0  0
    0.1910   -0.1364   -2.1398 H   0  0  0  0  0  0  0  0  0  0  0  0
    0.7982   -1.4950    1.1455 H   0  0  0  0  0  0  0  0  0  0  0  0
   -0.1324    0.9660    2.4481 H   0  0  0  0  0  0  0  0  0  0  0  0
   -1.0328   -0.5668    2.3589 H   0  0  0  0  0  0  0  0  0  0  0  0
   -1.3442   -1.9592    4.7884 H   0  0  0  0  0  0  0  0  0  0  0  0
   -2.6100   -1.3433    6.8073 H   0  0  0  0  0  0  0  0  0  0  0  0
    1.0558    1.5412    5.2081 H   0  0  0  0  0  0  0  0  0  0  0  0
    0.5171    2.2853    8.0583 H   0  0  0  0  0  0  0  0  0  0  0  0
   -1.8205    0.4407    9.0826 H   0  0  0  0  0  0  0  0  0  0  0  0
   -0.0252   -2.5137    3.5341 H   0  0  0  0  0  0  0  0  0  0  0  0
    1.6317   -0.0761    1.2281 H   0  0  0  0  0  0  0  0  0  0  0  0
  1  2  1  0  0  0  0
  1 17  1  0  0  0  0
  1 18  1  0  0  0  0
  1 19  1  0  0  0  0
  2  3  1  0  0  0  0
  2  4  1  0  0  0  0
  2 20  1  0  0  0  0
  3 21  1  0  0  0  0
  3 22  1  0  0  0  0
  3 23  1  0  0  0  0
  4  5  1  0  0  0  0
  4 24  1  0  0  0  0
  4 33  1  0  0  0  0
  5  6  1  0  0  0  0
  5 25  1  0  0  0  0
  5 26  1  0  0  0  0
  6  7  1  1  0  0  0
  6  8  1  0  0  0  0
  6 16  1  0  0  0  0
  8 13  2  0  0  0  0
  8  9  1  0  0  0  0
  9 10  2  0  0  0  0
  9 27  1  0  0  0  0
 10 11  1  0  0  0  0
 10 28  1  0  0  0  0
 11 12  2  0  0  0  0
 11 15  1  0  0  0  0
 12 13  1  0  0  0  0
 12 14  1  0  0  0  0
 13 29  1  0  0  0  0
 14 30  1  0  0  0  0
 15 31  1  0  0  0  0
 16 32  1  0  0  0  0
M  CHG  1   4   1
M  END
$$$$
