ZINC00001460
 OpenBabel08292219463D

 33 35  0  0  0  0  0  0  0  0999 V2000
    4.6527   -1.0845    2.9196 C   0  0  0  0  0  0  0  0  0  0  0  0
    4.3753   -0.5349    1.5903 N   0  0  0  0  0  0  0  0  0  0  0  0
    3.3559   -1.1220    0.8560 C   0  0  0  0  0  0  0  0  0  0  0  0
    3.2544   -2.5141    0.8994 C   0  0  0  0  0  0  0  0  0  0  0  0
    2.2659   -3.1687    0.1985 C   0  0  0  0  0  0  0  0  0  0  0  0
    1.3576   -2.4472   -0.5603 C   0  0  0  0  0  0  0  0  0  0  0  0
    1.4434   -1.0745   -0.6154 C   0  0  0  0  0  0  0  0  0  0  0  0
    2.4464   -0.3938    0.0982 C   0  0  0  0  0  0  0  0  0  0  0  0
    2.4800    1.0729   -0.0149 C   0  0  0  0  0  0  0  0  0  0  0  0
    3.5505    1.7781   -0.1207 N   0  0  0  0  0  0  0  0  0  0  0  0
    4.8790    1.1671   -0.1388 C   0  0  0  0  0  0  0  0  0  0  0  0
    5.1213    0.4893    1.1821 C   0  0  0  0  0  0  0  0  0  0  0  0
    6.0200    0.8860    1.8935 O   0  0  0  0  0  0  0  0  0  0  0  0
    1.1854    1.7909    0.0004 C   0  0  0  0  0  0  0  0  0  0  0  0
    0.7586    2.4903   -1.1289 C   0  0  0  0  0  0  0  0  0  0  0  0
   -0.4461    3.1612   -1.1072 C   0  0  0  0  0  0  0  0  0  0  0  0
   -1.2378    3.1341    0.0280 C   0  0  0  0  0  0  0  0  0  0  0  0
   -0.8230    2.4439    1.1514 C   0  0  0  0  0  0  0  0  0  0  0  0
    0.3853    1.7710    1.1454 C   0  0  0  0  0  0  0  0  0  0  0  0
    0.7908    1.0968    2.2437 F   0  0  0  0  0  0  0  0  0  0  0  0
    0.1121   -3.2750   -1.4419 Cl  0  0  0  0  0  0  0  0  0  0  0  0
    5.4714   -0.5302    3.3784 H   0  0  0  0  0  0  0  0  0  0  0  0
    3.7618   -0.9980    3.5417 H   0  0  0  0  0  0  0  0  0  0  0  0
    4.9312   -2.1343    2.8278 H   0  0  0  0  0  0  0  0  0  0  0  0
    3.9585   -3.0832    1.4882 H   0  0  0  0  0  0  0  0  0  0  0  0
    2.1986   -4.2458    0.2400 H   0  0  0  0  0  0  0  0  0  0  0  0
    0.7335   -0.5167   -1.2081 H   0  0  0  0  0  0  0  0  0  0  0  0
    4.9316    0.4317   -0.9416 H   0  0  0  0  0  0  0  0  0  0  0  0
    5.6330    1.9377   -0.2996 H   0  0  0  0  0  0  0  0  0  0  0  0
    1.3726    2.5098   -2.0172 H   0  0  0  0  0  0  0  0  0  0  0  0
   -0.7748    3.7060   -1.9799 H   0  0  0  0  0  0  0  0  0  0  0  0
   -2.1821    3.6582    0.0374 H   0  0  0  0  0  0  0  0  0  0  0  0
   -1.4432    2.4304    2.0355 H   0  0  0  0  0  0  0  0  0  0  0  0
  1  2  1  0  0  0  0
  1 22  1  0  0  0  0
  1 23  1  0  0  0  0
  1 24  1  0  0  0  0
  2 12  1  0  0  0  0
  2  3  1  0  0  0  0
  3  8  2  0  0  0  0
  3  4  1  0  0  0  0
  4  5  2  0  0  0  0
  4 25  1  0  0  0  0
  5  6  1  0  0  0  0
  5 26  1  0  0  0  0
  6  7  2  0  0  0  0
  6 21  1  0  0  0  0
  7  8  1  0  0  0  0
  7 27  1  0  0  0  0
  8  9  1  0  0  0  0
  9 10  2  0  0  0  0
  9 14  1  0  0  0  0
 10 11  1  0  0  0  0
 11 12  1  0  0  0  0
 11 28  1  0  0  0  0
 11 29  1  0  0  0  0
 12 13  2  0  0  0  0
 14 19  2  0  0  0  0
 14 15  1  0  0  0  0
 15 16  2  0  0  0  0
 15 30  1  0  0  0  0
 16 17  1  0  0  0  0
 16 31  1  0  0  0  0
 17 18  2  0  0  0  0
 17 32  1  0  0  0  0
 18 19  1  0  0  0  0
 18 33  1  0  0  0  0
 19 20  1  0  0  0  0
M  END
$$$$
