ZINC03871880
 OpenBabel08292219463D

 42 44  0  0  1  0  0  0  0  0999 V2000
   -0.0187    1.5258    0.0104 C   0  0  0  0  0  0  0  0  0  0  0  0
    0.0021   -0.0041    0.0020 C   0  0  0  0  0  0  0  0  0  0  0  0
    0.9183   -0.5578   -1.1267 C   0  0  1  0  0  0  0  0  0  0  0  0
    1.7655    0.1146   -1.2616 H   0  0  0  0  0  0  0  0  0  0  0  0
    1.4152   -1.8973   -0.7968 N   0  0  0  0  0  0  0  0  0  0  0  0
    1.5639   -2.1961    0.6340 C   0  0  2  0  0  0  0  0  0  0  0  0
    1.1313   -3.1348    0.9800 H   0  0  0  0  0  0  0  0  0  0  0  0
    0.9226   -0.6800    1.4567 S   0  0  0  0  0  0  0  0  0  0  0  0
    3.0673   -2.2015    0.4210 C   0  0  1  0  0  0  0  0  0  0  0  0
    3.5574   -3.1223    0.7376 H   0  0  0  0  0  0  0  0  0  0  0  0
    2.7129   -2.1678   -1.0358 C   0  0  0  0  0  0  0  0  0  0  0  0
    3.3561   -2.3252   -2.0520 O   0  0  0  0  0  0  0  0  0  0  0  0
    3.7428   -0.9941    0.9027 N   0  0  0  0  0  0  0  0  0  0  0  0
    5.0446   -1.0426    1.2482 C   0  0  0  0  0  0  0  0  0  0  0  0
    5.6569   -2.0859    1.1604 O   0  0  0  0  0  0  0  0  0  0  0  0
    5.7395    0.1994    1.7437 C   0  0  1  0  0  0  0  0  0  0  0  0
    5.2414    0.5599    2.6438 H   0  0  0  0  0  0  0  0  0  0  0  0
    7.1775   -0.1217    2.0598 C   0  0  0  0  0  0  0  0  0  0  0  0
    8.0149   -0.5933    1.0662 C   0  0  0  0  0  0  0  0  0  0  0  0
    9.3340   -0.8879    1.3561 C   0  0  0  0  0  0  0  0  0  0  0  0
    9.8159   -0.7104    2.6396 C   0  0  0  0  0  0  0  0  0  0  0  0
    8.9787   -0.2379    3.6330 C   0  0  0  0  0  0  0  0  0  0  0  0
    7.6607    0.0607    3.3421 C   0  0  0  0  0  0  0  0  0  0  0  0
    5.6849    1.2643    0.6788 C   0  0  0  0  0  0  0  0  0  0  0  0
    5.1330    1.0358   -0.3841 O   0  0  0  0  0  0  0  0  0  0  0  0
    6.1928    2.3543    0.8800 O   0  0  0  0  0  1  0  0  0  0  0  0
    0.1332   -0.6267   -2.4112 C   0  0  0  0  0  0  0  0  0  0  0  0
    0.1177    0.3290   -3.1682 O   0  0  0  0  0  0  0  0  0  0  0  0
   -0.4864   -1.6381   -2.6935 O   0  0  0  0  0  1  0  0  0  0  0  0
   -1.4126   -0.5802   -0.0861 C   0  0  0  0  0  0  0  0  0  0  0  0
    1.0039    1.9031    0.0027 H   0  0  0  0  0  0  0  0  0  0  0  0
   -0.5459    1.8868   -0.8726 H   0  0  0  0  0  0  0  0  0  0  0  0
   -0.5289    1.8773    0.9072 H   0  0  0  0  0  0  0  0  0  0  0  0
    3.2531   -0.1597    0.9729 H   0  0  0  0  0  0  0  0  0  0  0  0
    7.6385   -0.7319    0.0635 H   0  0  0  0  0  0  0  0  0  0  0  0
    9.9881   -1.2570    0.5800 H   0  0  0  0  0  0  0  0  0  0  0  0
   10.8463   -0.9412    2.8663 H   0  0  0  0  0  0  0  0  0  0  0  0
    9.3551   -0.0996    4.6358 H   0  0  0  0  0  0  0  0  0  0  0  0
    7.0077    0.4334    4.1173 H   0  0  0  0  0  0  0  0  0  0  0  0
   -1.8843   -0.2455   -1.0100 H   0  0  0  0  0  0  0  0  0  0  0  0
   -1.3627   -1.6690   -0.0774 H   0  0  0  0  0  0  0  0  0  0  0  0
   -1.9986   -0.2365    0.7662 H   0  0  0  0  0  0  0  0  0  0  0  0
  1  2  1  0  0  0  0
  1 31  1  0  0  0  0
  1 32  1  0  0  0  0
  1 33  1  0  0  0  0
  2  8  1  0  0  0  0
  2  3  1  0  0  0  0
  2 30  1  0  0  0  0
  3  4  1  6  0  0  0
  3  5  1  0  0  0  0
  3 27  1  0  0  0  0
  5 11  1  0  0  0  0
  5  6  1  0  0  0  0
  6  7  1  1  0  0  0
  6  8  1  0  0  0  0
  6  9  1  0  0  0  0
  9 10  1  1  0  0  0
  9 11  1  0  0  0  0
  9 13  1  0  0  0  0
 11 12  2  0  0  0  0
 13 14  1  0  0  0  0
 13 34  1  0  0  0  0
 14 15  2  0  0  0  0
 14 16  1  0  0  0  0
 16 17  1  1  0  0  0
 16 18  1  0  0  0  0
 16 24  1  0  0  0  0
 18 23  2  0  0  0  0
 18 19  1  0  0  0  0
 19 20  2  0  0  0  0
 19 35  1  0  0  0  0
 20 21  1  0  0  0  0
 20 36  1  0  0  0  0
 21 22  2  0  0  0  0
 21 37  1  0  0  0  0
 22 23  1  0  0  0  0
 22 38  1  0  0  0  0
 23 39  1  0  0  0  0
 24 25  2  0  0  0  0
 24 26  1  0  0  0  0
 27 28  2  0  0  0  0
 27 29  1  0  0  0  0
 30 40  1  0  0  0  0
 30 41  1  0  0  0  0
 30 42  1  0  0  0  0
M  END
$$$$
