ZINC08585135
 OpenBabel08292219463D

 71 74  0  0  1  0  0  0  0  0999 V2000
    2.4414   -4.8559  -10.3172 C   0  0  0  0  0  0  0  0  0  0  0  0
    3.0214   -3.4824   -9.9740 C   0  0  0  0  0  0  0  0  0  0  0  0
    3.4822   -3.4759   -8.5392 C   0  0  0  0  0  0  0  0  0  0  0  0
    3.3592   -4.4681   -7.8607 O   0  0  0  0  0  0  0  0  0  0  0  0
    4.0292   -2.3679   -8.0149 O   0  0  0  0  0  0  0  0  0  0  0  0
    4.4502   -2.4339   -6.6269 C   0  0  0  0  0  0  0  0  0  0  0  0
    5.0357   -1.1075   -6.2159 C   0  0  0  0  0  0  0  0  0  0  0  0
    5.0093   -0.1729   -6.9803 O   0  0  0  0  0  0  0  0  0  0  0  0
    5.6519   -0.9480   -4.8566 C   0  0  1  0  0  0  0  0  0  0  0  0
    6.5707    0.2999   -4.8125 C   0  0  0  0  0  0  0  0  0  0  0  0
    6.2168    1.0589   -3.5026 C   0  0  0  0  0  0  0  0  0  0  0  0
    5.4078    0.0212   -2.7106 C   0  0  2  0  0  0  0  0  0  0  0  0
    6.1270   -0.7361   -2.3313 H   0  0  0  0  0  0  0  0  0  0  0  0
    4.5546   -0.6285   -3.8157 C   0  0  2  0  0  0  0  0  0  0  0  0
    3.8122   -1.8265   -3.2905 C   0  0  0  0  0  0  0  0  0  0  0  0
    3.2816   -1.5887   -1.8655 C   0  0  1  0  0  0  0  0  0  0  0  0
    3.9433   -2.0965   -1.1563 H   0  0  0  0  0  0  0  0  0  0  0  0
    3.2023   -0.1106   -1.5333 C   0  0  2  0  0  0  0  0  0  0  0  0
    2.5763    0.3898   -2.2911 H   0  0  0  0  0  0  0  0  0  0  0  0
    4.6027    0.5156   -1.5479 C   0  0  2  0  0  0  0  0  0  0  0  0
    5.1530    0.1854   -0.6445 H   0  0  0  0  0  0  0  0  0  0  0  0
    4.5176    2.0365   -1.4638 C   0  0  0  0  0  0  0  0  0  0  0  0
    3.8646    2.4209   -0.1224 C   0  0  0  0  0  0  0  0  0  0  0  0
    2.5277    1.7042   -0.0600 C   0  0  0  0  0  0  0  0  0  0  0  0
    1.4238    2.4204    0.0817 C   0  0  0  0  0  0  0  0  0  0  0  0
    0.1050    1.7628    0.1045 C   0  0  0  0  0  0  0  0  0  0  0  0
   -0.9191    2.4214    0.1267 O   0  0  0  0  0  0  0  0  0  0  0  0
    0.0595    0.2904    0.0935 C   0  0  0  0  0  0  0  0  0  0  0  0
    1.1830   -0.4021   -0.0324 C   0  0  0  0  0  0  0  0  0  0  0  0
    2.5309    0.2021   -0.2001 C   0  0  1  0  0  0  0  0  0  0  0  0
    3.3759   -0.3641    0.9384 C   0  0  0  0  0  0  0  0  0  0  0  0
    1.9835   -2.1936   -1.7806 O   0  0  0  0  0  0  0  0  0  0  0  0
    3.6050    0.3651   -4.4892 C   0  0  0  0  0  0  0  0  0  0  0  0
    6.3811   -2.1346   -4.4671 O   0  0  0  0  0  0  0  0  0  0  0  0
    7.4380   -2.4783   -5.2251 C   0  0  0  0  0  0  0  0  0  0  0  0
    7.6829   -1.8605   -6.2414 O   0  0  0  0  0  0  0  0  0  0  0  0
    8.2238   -3.5065   -4.8571 O   0  0  0  0  0  0  0  0  0  0  0  0
    9.3462   -3.8211   -5.7228 C   0  0  0  0  0  0  0  0  0  0  0  0
   10.1178   -5.0096   -5.1459 C   0  0  0  0  0  0  0  0  0  0  0  0
    3.2073   -5.6189  -10.1781 H   0  0  0  0  0  0  0  0  0  0  0  0
    1.5954   -5.0669   -9.6629 H   0  0  0  0  0  0  0  0  0  0  0  0
    2.1081   -4.8606  -11.3550 H   0  0  0  0  0  0  0  0  0  0  0  0
    2.2555   -2.7194  -10.1131 H   0  0  0  0  0  0  0  0  0  0  0  0
    3.8674   -3.2715  -10.6282 H   0  0  0  0  0  0  0  0  0  0  0  0
    5.1403   -3.1499   -6.5216 H   0  0  0  0  0  0  0  0  0  0  0  0
    3.5905   -2.6623   -5.9969 H   0  0  0  0  0  0  0  0  0  0  0  0
    7.6173   -0.0057   -4.7939 H   0  0  0  0  0  0  0  0  0  0  0  0
    6.3811    0.9354   -5.6759 H   0  0  0  0  0  0  0  0  0  0  0  0
    7.1296    1.3201   -2.9615 H   0  0  0  0  0  0  0  0  0  0  0  0
    5.6330    1.9498   -3.7094 H   0  0  0  0  0  0  0  0  0  0  0  0
    4.4696   -2.7062   -3.2816 H   0  0  0  0  0  0  0  0  0  0  0  0
    2.9635   -2.0563   -3.9512 H   0  0  0  0  0  0  0  0  0  0  0  0
    5.5195    2.4606   -1.5071 H   0  0  0  0  0  0  0  0  0  0  0  0
    3.9156    2.4225   -2.2809 H   0  0  0  0  0  0  0  0  0  0  0  0
    4.5052    2.1252    0.7024 H   0  0  0  0  0  0  0  0  0  0  0  0
    3.7038    3.5008   -0.0964 H   0  0  0  0  0  0  0  0  0  0  0  0
    1.4922    3.4958    0.1817 H   0  0  0  0  0  0  0  0  0  0  0  0
   -0.8892   -0.2223    0.1889 H   0  0  0  0  0  0  0  0  0  0  0  0
    1.1126   -1.4798    0.0342 H   0  0  0  0  0  0  0  0  0  0  0  0
    3.4136   -1.4504    0.8573 H   0  0  0  0  0  0  0  0  0  0  0  0
    4.3863    0.0401    0.8768 H   0  0  0  0  0  0  0  0  0  0  0  0
    2.9310   -0.0863    1.8939 H   0  0  0  0  0  0  0  0  0  0  0  0
    1.9762   -3.1391   -1.9835 H   0  0  0  0  0  0  0  0  0  0  0  0
    2.8169    0.6453   -3.7903 H   0  0  0  0  0  0  0  0  0  0  0  0
    4.1605    1.2546   -4.7861 H   0  0  0  0  0  0  0  0  0  0  0  0
    3.1611   -0.0972   -5.3710 H   0  0  0  0  0  0  0  0  0  0  0  0
    8.9783   -4.0748   -6.7170 H   0  0  0  0  0  0  0  0  0  0  0  0
   10.0070   -2.9568   -5.7896 H   0  0  0  0  0  0  0  0  0  0  0  0
   10.4857   -4.7559   -4.1517 H   0  0  0  0  0  0  0  0  0  0  0  0
    9.4571   -5.8739   -5.0792 H   0  0  0  0  0  0  0  0  0  0  0  0
   10.9604   -5.2458   -5.7958 H   0  0  0  0  0  0  0  0  0  0  0  0
  1  2  1  0  0  0  0
  1 40  1  0  0  0  0
  1 41  1  0  0  0  0
  1 42  1  0  0  0  0
  2  3  1  0  0  0  0
  2 43  1  0  0  0  0
  2 44  1  0  0  0  0
  3  4  2  0  0  0  0
  3  5  1  0  0  0  0
  5  6  1  0  0  0  0
  6  7  1  0  0  0  0
  6 45  1  0  0  0  0
  6 46  1  0  0  0  0
  7  8  2  0  0  0  0
  9  7  1  6  0  0  0
  9 14  1  0  0  0  0
  9 10  1  0  0  0  0
  9 34  1  0  0  0  0
 10 11  1  0  0  0  0
 10 47  1  0  0  0  0
 10 48  1  0  0  0  0
 11 12  1  0  0  0  0
 11 49  1  0  0  0  0
 11 50  1  0  0  0  0
 12 13  1  1  0  0  0
 12 20  1  0  0  0  0
 12 14  1  0  0  0  0
 14 15  1  0  0  0  0
 14 33  1  6  0  0  0
 15 16  1  0  0  0  0
 15 51  1  0  0  0  0
 15 52  1  0  0  0  0
 16 17  1  1  0  0  0
 16 18  1  0  0  0  0
 16 32  1  0  0  0  0
 18 19  1  6  0  0  0
 18 30  1  0  0  0  0
 18 20  1  0  0  0  0
 20 21  1  1  0  0  0
 20 22  1  0  0  0  0
 22 23  1  0  0  0  0
 22 53  1  0  0  0  0
 22 54  1  0  0  0  0
 23 24  1  0  0  0  0
 23 55  1  0  0  0  0
 23 56  1  0  0  0  0
 24 30  1  0  0  0  0
 24 25  2  0  0  0  0
 25 26  1  0  0  0  0
 25 57  1  0  0  0  0
 26 27  2  0  0  0  0
 26 28  1  0  0  0  0
 28 29  2  0  0  0  0
 28 58  1  0  0  0  0
 29 30  1  0  0  0  0
 29 59  1  0  0  0  0
 30 31  1  1  0  0  0
 31 60  1  0  0  0  0
 31 61  1  0  0  0  0
 31 62  1  0  0  0  0
 32 63  1  0  0  0  0
 33 64  1  0  0  0  0
 33 65  1  0  0  0  0
 33 66  1  0  0  0  0
 34 35  1  0  0  0  0
 35 36  2  0  0  0  0
 35 37  1  0  0  0  0
 37 38  1  0  0  0  0
 38 39  1  0  0  0  0
 38 67  1  0  0  0  0
 38 68  1  0  0  0  0
 39 69  1  0  0  0  0
 39 70  1  0  0  0  0
 39 71  1  0  0  0  0
M  END
$$$$
