ZINC03941496
 OpenBabel08292219463D

103105  0  0  1  0  0  0  0  0999 V2000
    4.7837    3.1462    2.5549 C   0  0  0  0  0  0  0  0  0  0  0  0
    6.1707    3.7555    2.7690 C   0  0  0  0  0  0  0  0  0  0  0  0
    6.7668    3.2212    4.0729 C   0  0  0  0  0  0  0  0  0  0  0  0
    6.0517    5.2788    2.8492 C   0  0  0  0  0  0  0  0  0  0  0  0
    7.0806    3.3759    1.5990 C   0  0  1  0  0  0  0  0  0  0  0  0
    7.1098    2.2910    1.4986 H   0  0  0  0  0  0  0  0  0  0  0  0
    6.5449    3.9837    0.3283 C   0  0  0  0  0  0  0  0  0  0  0  0
    6.9108    5.0871   -0.0174 O   0  0  0  0  0  0  0  0  0  0  0  0
    5.6592    3.3010   -0.4240 N   0  0  0  0  0  0  0  0  0  0  0  0
    5.2102    3.8500   -1.7059 C   0  0  1  0  0  0  0  0  0  0  0  0
    5.1447    4.9356   -1.6333 H   0  0  0  0  0  0  0  0  0  0  0  0
    6.2096    3.4716   -2.8008 C   0  0  0  0  0  0  0  0  0  0  0  0
    7.5335    4.1363   -2.5242 C   0  0  0  0  0  0  0  0  0  0  0  0
    7.7997    5.3893   -3.0438 C   0  0  0  0  0  0  0  0  0  0  0  0
    9.0122    6.0011   -2.7860 C   0  0  0  0  0  0  0  0  0  0  0  0
    9.9625    5.3554   -2.0174 C   0  0  0  0  0  0  0  0  0  0  0  0
    9.6984    4.1002   -1.5021 C   0  0  0  0  0  0  0  0  0  0  0  0
    8.4838    3.4906   -1.7556 C   0  0  0  0  0  0  0  0  0  0  0  0
    3.8339    3.2780   -2.0517 C   0  0  2  0  0  0  0  0  0  0  0  0
    3.4999    3.6865   -3.0055 H   0  0  0  0  0  0  0  0  0  0  0  0
    2.8346    3.6565   -0.9568 C   0  0  0  0  0  0  0  0  0  0  0  0
    1.5132    3.1073   -1.2888 N   0  0  0  0  0  0  0  0  0  0  0  0
    0.5544    3.3492   -0.2024 C   0  0  0  0  0  0  0  0  0  0  0  0
   -0.7201    2.5944   -0.4798 C   0  0  0  0  0  0  0  0  0  0  0  0
   -0.8245    1.2628   -0.1200 C   0  0  0  0  0  0  0  0  0  0  0  0
   -1.9893    0.5667   -0.3717 C   0  0  0  0  0  0  0  0  0  0  0  0
   -3.0594    1.2061   -0.9947 C   0  0  0  0  0  0  0  0  0  0  0  0
   -2.9503    2.5491   -1.3506 C   0  0  0  0  0  0  0  0  0  0  0  0
   -1.7809    3.2356   -1.0937 C   0  0  0  0  0  0  0  0  0  0  0  0
   -4.3118    0.4614   -1.2733 C   0  0  0  0  0  0  0  0  0  0  0  0
   -5.3765    1.1089   -1.8966 C   0  0  0  0  0  0  0  0  0  0  0  0
   -6.5383    0.4010   -2.1504 C   0  0  0  0  0  0  0  0  0  0  0  0
   -6.5973   -0.9330   -1.7721 C   0  0  0  0  0  0  0  0  0  0  0  0
   -5.5029   -1.5124   -1.1574 C   0  0  0  0  0  0  0  0  0  0  0  0
   -4.4067   -0.8169   -0.9320 N   0  0  0  0  0  0  0  0  0  0  0  0
    1.0537    3.6174   -2.4698 N   0  0  0  0  0  0  0  0  0  0  0  0
    0.7379    2.7884   -3.4844 C   0  0  0  0  0  0  0  0  0  0  0  0
    0.9601    1.6000   -3.3881 O   0  0  0  0  0  0  0  0  0  0  0  0
    0.1086    3.3381   -4.7386 C   0  0  2  0  0  0  0  0  0  0  0  0
   -0.7050    2.6846   -5.0533 H   0  0  0  0  0  0  0  0  0  0  0  0
    1.1609    3.4124   -5.8467 C   0  0  0  0  0  0  0  0  0  0  0  0
    1.6088    1.9980   -6.2205 C   0  0  0  0  0  0  0  0  0  0  0  0
    0.5602    4.0985   -7.0753 C   0  0  0  0  0  0  0  0  0  0  0  0
    2.3661    4.2151   -5.3526 C   0  0  0  0  0  0  0  0  0  0  0  0
   -0.4171    4.6795   -4.4736 N   0  0  0  0  0  0  0  0  0  0  0  0
   -1.6376    5.0269   -4.9278 C   0  0  0  0  0  0  0  0  0  0  0  0
   -2.3018    4.2274   -5.5572 O   0  0  0  0  0  0  0  0  0  0  0  0
   -2.1208    6.2597   -4.6843 O   0  0  0  0  0  0  0  0  0  0  0  0
   -3.4420    6.5644   -5.2037 C   0  0  0  0  0  0  0  0  0  0  0  0
    3.9198    1.8548   -2.1469 O   0  0  0  0  0  0  0  0  0  0  0  0
    8.4333    3.8799    1.8489 N   0  0  0  0  0  0  0  0  0  0  0  0
    9.2968    3.1549    2.5873 C   0  0  0  0  0  0  0  0  0  0  0  0
    8.9533    2.0833    3.0458 O   0  0  0  0  0  0  0  0  0  0  0  0
   10.5399    3.6181    2.8170 O   0  0  0  0  0  0  0  0  0  0  0  0
   11.4160    2.7844    3.6205 C   0  0  0  0  0  0  0  0  0  0  0  0
    4.8826    2.0797    2.3529 H   0  0  0  0  0  0  0  0  0  0  0  0
    4.1806    3.2918    3.4511 H   0  0  0  0  0  0  0  0  0  0  0  0
    4.2997    3.6330    1.7083 H   0  0  0  0  0  0  0  0  0  0  0  0
    7.7549    3.6553    4.2254 H   0  0  0  0  0  0  0  0  0  0  0  0
    6.1185    3.4917    4.9064 H   0  0  0  0  0  0  0  0  0  0  0  0
    6.8515    2.1360    4.0157 H   0  0  0  0  0  0  0  0  0  0  0  0
    5.6270    5.6595    1.9203 H   0  0  0  0  0  0  0  0  0  0  0  0
    5.4034    5.5492    3.6827 H   0  0  0  0  0  0  0  0  0  0  0  0
    7.0398    5.7129    3.0017 H   0  0  0  0  0  0  0  0  0  0  0  0
    5.3190    2.4462   -0.1167 H   0  0  0  0  0  0  0  0  0  0  0  0
    6.3419    2.3897   -2.8138 H   0  0  0  0  0  0  0  0  0  0  0  0
    5.8317    3.8030   -3.7680 H   0  0  0  0  0  0  0  0  0  0  0  0
    7.0589    5.8919   -3.6480 H   0  0  0  0  0  0  0  0  0  0  0  0
    9.2187    6.9816   -3.1889 H   0  0  0  0  0  0  0  0  0  0  0  0
   10.9116    5.8315   -1.8197 H   0  0  0  0  0  0  0  0  0  0  0  0
   10.4410    3.5956   -0.9019 H   0  0  0  0  0  0  0  0  0  0  0  0
    8.2776    2.5098   -1.3533 H   0  0  0  0  0  0  0  0  0  0  0  0
    2.7690    4.7421   -0.8841 H   0  0  0  0  0  0  0  0  0  0  0  0
    3.1686    3.2480   -0.0030 H   0  0  0  0  0  0  0  0  0  0  0  0
    0.3386    4.4158   -0.1390 H   0  0  0  0  0  0  0  0  0  0  0  0
    0.9807    3.0081    0.7410 H   0  0  0  0  0  0  0  0  0  0  0  0
    0.0069    0.7672    0.3590 H   0  0  0  0  0  0  0  0  0  0  0  0
   -2.0698   -0.4729   -0.0904 H   0  0  0  0  0  0  0  0  0  0  0  0
   -3.7779    3.0506   -1.8303 H   0  0  0  0  0  0  0  0  0  0  0  0
   -1.6941    4.2754   -1.3722 H   0  0  0  0  0  0  0  0  0  0  0  0
   -5.2965    2.1487   -2.1773 H   0  0  0  0  0  0  0  0  0  0  0  0
   -7.3804    0.8761   -2.6318 H   0  0  0  0  0  0  0  0  0  0  0  0
   -7.4897   -1.5129   -1.9559 H   0  0  0  0  0  0  0  0  0  0  0  0
   -5.5453   -2.5504   -0.8621 H   0  0  0  0  0  0  0  0  0  0  0  0
    0.9547    4.5762   -2.5781 H   0  0  0  0  0  0  0  0  0  0  0  0
    0.7406    1.4073   -6.5129 H   0  0  0  0  0  0  0  0  0  0  0  0
    2.3115    2.0473   -7.0522 H   0  0  0  0  0  0  0  0  0  0  0  0
    2.0932    1.5317   -5.3626 H   0  0  0  0  0  0  0  0  0  0  0  0
    0.2411    5.1062   -6.8090 H   0  0  0  0  0  0  0  0  0  0  0  0
    1.3099    4.1515   -7.8647 H   0  0  0  0  0  0  0  0  0  0  0  0
   -0.2984    3.5267   -7.4273 H   0  0  0  0  0  0  0  0  0  0  0  0
    2.7941    3.7263   -4.4774 H   0  0  0  0  0  0  0  0  0  0  0  0
    3.1158    4.2681   -6.1421 H   0  0  0  0  0  0  0  0  0  0  0  0
    2.0470    5.2228   -5.0863 H   0  0  0  0  0  0  0  0  0  0  0  0
    0.1131    5.3178   -3.9712 H   0  0  0  0  0  0  0  0  0  0  0  0
   -3.4389    6.4601   -6.2887 H   0  0  0  0  0  0  0  0  0  0  0  0
   -4.1690    5.8749   -4.7745 H   0  0  0  0  0  0  0  0  0  0  0  0
   -3.7101    7.5869   -4.9377 H   0  0  0  0  0  0  0  0  0  0  0  0
    4.2119    1.4230   -1.3325 H   0  0  0  0  0  0  0  0  0  0  0  0
    8.7075    4.7353    1.4829 H   0  0  0  0  0  0  0  0  0  0  0  0
   11.5487    1.8194    3.1312 H   0  0  0  0  0  0  0  0  0  0  0  0
   12.3843    3.2732    3.7286 H   0  0  0  0  0  0  0  0  0  0  0  0
   10.9728    2.6346    4.6050 H   0  0  0  0  0  0  0  0  0  0  0  0
  1  2  1  0  0  0  0
  1 56  1  0  0  0  0
  1 57  1  0  0  0  0
  1 58  1  0  0  0  0
  2  3  1  0  0  0  0
  2  4  1  0  0  0  0
  2  5  1  0  0  0  0
  3 59  1  0  0  0  0
  3 60  1  0  0  0  0
  3 61  1  0  0  0  0
  4 62  1  0  0  0  0
  4 63  1  0  0  0  0
  4 64  1  0  0  0  0
  5  6  1  6  0  0  0
  5  7  1  0  0  0  0
  5 51  1  0  0  0  0
  7  8  2  0  0  0  0
  7  9  1  0  0  0  0
  9 10  1  0  0  0  0
  9 65  1  0  0  0  0
 10 11  1  1  0  0  0
 10 12  1  0  0  0  0
 10 19  1  0  0  0  0
 12 13  1  0  0  0  0
 12 66  1  0  0  0  0
 12 67  1  0  0  0  0
 13 18  2  0  0  0  0
 13 14  1  0  0  0  0
 14 15  2  0  0  0  0
 14 68  1  0  0  0  0
 15 16  1  0  0  0  0
 15 69  1  0  0  0  0
 16 17  2  0  0  0  0
 16 70  1  0  0  0  0
 17 18  1  0  0  0  0
 17 71  1  0  0  0  0
 18 72  1  0  0  0  0
 19 20  1  6  0  0  0
 19 21  1  0  0  0  0
 19 50  1  0  0  0  0
 21 22  1  0  0  0  0
 21 73  1  0  0  0  0
 21 74  1  0  0  0  0
 22 23  1  0  0  0  0
 22 36  1  0  0  0  0
 23 24  1  0  0  0  0
 23 75  1  0  0  0  0
 23 76  1  0  0  0  0
 24 29  2  0  0  0  0
 24 25  1  0  0  0  0
 25 26  2  0  0  0  0
 25 77  1  0  0  0  0
 26 27  1  0  0  0  0
 26 78  1  0  0  0  0
 27 28  2  0  0  0  0
 27 30  1  0  0  0  0
 28 29  1  0  0  0  0
 28 79  1  0  0  0  0
 29 80  1  0  0  0  0
 30 35  2  0  0  0  0
 30 31  1  0  0  0  0
 31 32  2  0  0  0  0
 31 81  1  0  0  0  0
 32 33  1  0  0  0  0
 32 82  1  0  0  0  0
 33 34  2  0  0  0  0
 33 83  1  0  0  0  0
 34 35  1  0  0  0  0
 34 84  1  0  0  0  0
 36 37  1  0  0  0  0
 36 85  1  0  0  0  0
 37 38  2  0  0  0  0
 37 39  1  0  0  0  0
 39 40  1  6  0  0  0
 39 41  1  0  0  0  0
 39 45  1  0  0  0  0
 41 42  1  0  0  0  0
 41 43  1  0  0  0  0
 41 44  1  0  0  0  0
 42 86  1  0  0  0  0
 42 87  1  0  0  0  0
 42 88  1  0  0  0  0
 43 89  1  0  0  0  0
 43 90  1  0  0  0  0
 43 91  1  0  0  0  0
 44 92  1  0  0  0  0
 44 93  1  0  0  0  0
 44 94  1  0  0  0  0
 45 46  1  0  0  0  0
 45 95  1  0  0  0  0
 46 47  2  0  0  0  0
 46 48  1  0  0  0  0
 48 49  1  0  0  0  0
 49 96  1  0  0  0  0
 49 97  1  0  0  0  0
 49 98  1  0  0  0  0
 50 99  1  0  0  0  0
 51 52  1  0  0  0  0
 51100  1  0  0  0  0
 52 53  2  0  0  0  0
 52 54  1  0  0  0  0
 54 55  1  0  0  0  0
 55101  1  0  0  0  0
 55102  1  0  0  0  0
 55103  1  0  0  0  0
M  END
$$$$
