ZINC05162311
 OpenBabel08292219463D

 33 34  0  0  0  0  0  0  0  0999 V2000
    4.2827    1.3971    3.6211 C   0  0  0  0  0  0  0  0  0  0  0  0
    4.0812    2.1059    2.4498 C   0  0  0  0  0  0  0  0  0  0  0  0
    3.8899    1.4364    1.2591 C   0  0  0  0  0  0  0  0  0  0  0  0
    3.9003    0.0401    1.2375 C   0  0  0  0  0  0  0  0  0  0  0  0
    4.1046   -0.6688    2.4231 C   0  0  0  0  0  0  0  0  0  0  0  0
    4.2942    0.0134    3.6068 C   0  0  0  0  0  0  0  0  0  0  0  0
    3.6954   -0.6841   -0.0346 C   0  0  0  0  0  0  0  0  0  0  0  0
    3.4192   -0.0692   -1.0468 O   0  0  0  0  0  0  0  0  0  0  0  0
    3.8259   -2.1508   -0.0764 C   0  0  0  0  0  0  0  0  0  0  0  0
    2.6853   -2.9574   -0.1430 C   0  0  0  0  0  0  0  0  0  0  0  0
    2.8144   -4.3276   -0.1817 C   0  0  0  0  0  0  0  0  0  0  0  0
    4.0705   -4.9145   -0.1546 C   0  0  0  0  0  0  0  0  0  0  0  0
    5.2057   -4.1334   -0.0886 C   0  0  0  0  0  0  0  0  0  0  0  0
    5.0971   -2.7485   -0.0554 C   0  0  0  0  0  0  0  0  0  0  0  0
    6.2380   -1.9602    0.0044 N   0  0  0  0  0  0  0  0  0  0  0  0
    6.5653   -4.7827   -0.0587 C   0  0  0  0  0  0  0  0  0  0  0  0
    7.0197   -4.9313    1.3705 C   0  0  0  0  0  0  0  0  0  0  0  0
    6.3094   -4.5478    2.2757 O   0  0  0  0  0  0  0  0  0  0  0  0
    8.2154   -5.4905    1.6428 N   0  0  0  0  0  0  0  0  0  0  0  0
    4.4361    1.9264    4.5500 H   0  0  0  0  0  0  0  0  0  0  0  0
    4.0735    3.1857    2.4680 H   0  0  0  0  0  0  0  0  0  0  0  0
    3.7321    1.9908    0.3458 H   0  0  0  0  0  0  0  0  0  0  0  0
    4.1134   -1.7487    2.4134 H   0  0  0  0  0  0  0  0  0  0  0  0
    4.4523   -0.5335    4.5246 H   0  0  0  0  0  0  0  0  0  0  0  0
    1.7043   -2.5059   -0.1637 H   0  0  0  0  0  0  0  0  0  0  0  0
    1.9325   -4.9489   -0.2331 H   0  0  0  0  0  0  0  0  0  0  0  0
    4.1606   -5.9903   -0.1850 H   0  0  0  0  0  0  0  0  0  0  0  0
    6.1584   -0.9986    0.1036 H   0  0  0  0  0  0  0  0  0  0  0  0
    7.1149   -2.3709   -0.0532 H   0  0  0  0  0  0  0  0  0  0  0  0
    6.5089   -5.7658   -0.5261 H   0  0  0  0  0  0  0  0  0  0  0  0
    7.2766   -4.1617   -0.6033 H   0  0  0  0  0  0  0  0  0  0  0  0
    8.7835   -5.7972    0.9189 H   0  0  0  0  0  0  0  0  0  0  0  0
    8.5079   -5.5861    2.5627 H   0  0  0  0  0  0  0  0  0  0  0  0
  1  6  2  0  0  0  0
  1  2  1  0  0  0  0
  1 20  1  0  0  0  0
  2  3  2  0  0  0  0
  2 21  1  0  0  0  0
  3  4  1  0  0  0  0
  3 22  1  0  0  0  0
  4  5  2  0  0  0  0
  4  7  1  0  0  0  0
  5  6  1  0  0  0  0
  5 23  1  0  0  0  0
  6 24  1  0  0  0  0
  7  8  2  0  0  0  0
  7  9  1  0  0  0  0
  9 14  2  0  0  0  0
  9 10  1  0  0  0  0
 10 11  2  0  0  0  0
 10 25  1  0  0  0  0
 11 12  1  0  0  0  0
 11 26  1  0  0  0  0
 12 13  2  0  0  0  0
 12 27  1  0  0  0  0
 13 14  1  0  0  0  0
 13 16  1  0  0  0  0
 14 15  1  0  0  0  0
 15 28  1  0  0  0  0
 15 29  1  0  0  0  0
 16 17  1  0  0  0  0
 16 30  1  0  0  0  0
 16 31  1  0  0  0  0
 17 18  2  0  0  0  0
 17 19  1  0  0  0  0
 19 32  1  0  0  0  0
 19 33  1  0  0  0  0
M  END
$$$$
