ZINC00113442
 OpenBabel08292219463D

 21 21  0  0  0  0  0  0  0  0999 V2000
   -0.0184    1.5028    0.0103 C   0  0  0  0  0  0  0  0  0  0  0  0
    0.0021   -0.0041    0.0020 C   0  0  0  0  0  0  0  0  0  0  0  0
    0.0080   -0.7588   -1.0626 N   0  0  0  0  0  0  0  0  0  0  0  0
    0.0278   -2.0475   -0.6911 C   0  0  0  0  0  0  0  0  0  0  0  0
    0.0345   -2.0930    0.6548 C   0  0  0  0  0  0  0  0  0  0  0  0
    0.0232   -0.7970    1.0950 N   0  0  0  0  0  0  0  0  0  0  0  0
    0.0296   -0.3529    2.4911 C   0  0  0  0  0  0  0  0  0  0  0  0
   -1.4104   -0.2188    2.9902 C   0  0  0  0  0  0  0  0  0  0  0  0
   -1.4042    0.2143    4.3519 O   0  0  0  0  0  0  0  0  0  0  0  0
    0.0554   -3.3107    1.4964 N   0  0  0  0  0  4  0  0  0  0  0  0
    0.0690   -4.4031    0.9788 O   0  0  0  0  0  0  0  0  0  0  0  0
    0.0589   -3.2126    2.7014 O   0  5  0  0  0  0  0  0  0  0  0  0
    1.0042    1.8801    0.0026 H   0  0  0  0  0  0  0  0  0  0  0  0
   -0.5455    1.8639   -0.8728 H   0  0  0  0  0  0  0  0  0  0  0  0
   -0.5286    1.8543    0.9071 H   0  0  0  0  0  0  0  0  0  0  0  0
    0.0365   -2.8993   -1.3550 H   0  0  0  0  0  0  0  0  0  0  0  0
    0.5594   -1.0836    3.1023 H   0  0  0  0  0  0  0  0  0  0  0  0
    0.5305    0.6125    2.5630 H   0  0  0  0  0  0  0  0  0  0  0  0
   -1.9402    0.5119    2.3790 H   0  0  0  0  0  0  0  0  0  0  0  0
   -1.9113   -1.1842    2.9182 H   0  0  0  0  0  0  0  0  0  0  0  0
   -2.2857    0.3210    4.7348 H   0  0  0  0  0  0  0  0  0  0  0  0
  1  2  1  0  0  0  0
  1 13  1  0  0  0  0
  1 14  1  0  0  0  0
  1 15  1  0  0  0  0
  2  6  1  0  0  0  0
  2  3  2  0  0  0  0
  3  4  1  0  0  0  0
  4  5  2  0  0  0  0
  4 16  1  0  0  0  0
  5  6  1  0  0  0  0
  5 10  1  0  0  0  0
  6  7  1  0  0  0  0
  7  8  1  0  0  0  0
  7 17  1  0  0  0  0
  7 18  1  0  0  0  0
  8  9  1  0  0  0  0
  8 19  1  0  0  0  0
  8 20  1  0  0  0  0
  9 21  1  0  0  0  0
 10 11  2  0  0  0  0
 10 12  1  0  0  0  0
M  CHG  1  12  -1
M  END
$$$$
