ZINC19802035
 OpenBabel08292219463D

 44 45  0  0  1  0  0  0  0  0999 V2000
    1.9517   -1.8882   -2.4190 C   0  0  0  0  0  0  0  0  0  0  0  0
    1.1051   -1.5245   -1.1976 C   0  0  0  0  0  0  0  0  0  0  0  0
    1.7000   -2.0801   -0.0231 O   0  0  0  0  0  0  0  0  0  0  0  0
    1.0724   -1.8498    1.1492 C   0  0  0  0  0  0  0  0  0  0  0  0
    0.0473   -1.1945    1.1721 O   0  0  0  0  0  0  0  0  0  0  0  0
    1.6060   -2.3700    2.3510 C   0  0  0  0  0  0  0  0  0  0  0  0
    1.4893   -3.6844    2.6076 C   0  0  0  0  0  0  0  0  0  0  0  0
    1.9872   -4.2195    3.7643 N   0  0  0  0  0  0  0  0  0  0  0  0
    2.2827   -3.4108    4.8276 C   0  0  0  0  0  0  0  0  0  0  0  0
    2.4324   -2.0850    4.6636 C   0  0  0  0  0  0  0  0  0  0  0  0
    2.2963   -1.4429    3.3106 C   0  0  1  0  0  0  0  0  0  0  0  0
    1.7131   -0.5271    3.4074 H   0  0  0  0  0  0  0  0  0  0  0  0
    3.6643   -1.1045    2.7765 C   0  0  0  0  0  0  0  0  0  0  0  0
    4.5856   -2.1099    2.5491 C   0  0  0  0  0  0  0  0  0  0  0  0
    5.8405   -1.8005    2.0592 C   0  0  0  0  0  0  0  0  0  0  0  0
    6.1760   -0.4853    1.7965 C   0  0  0  0  0  0  0  0  0  0  0  0
    5.2555    0.5217    2.0234 C   0  0  0  0  0  0  0  0  0  0  0  0
    3.9960    0.2111    2.5084 C   0  0  0  0  0  0  0  0  0  0  0  0
    2.8369    1.4731    2.7865 Cl  0  0  0  0  0  0  0  0  0  0  0  0
    5.6762    2.1734    1.6937 Cl  0  0  0  0  0  0  0  0  0  0  0  0
    2.7286   -1.2781    5.7865 C   0  0  0  0  0  0  0  0  0  0  0  0
    2.8453   -1.7854    6.8865 O   0  0  0  0  0  0  0  0  0  0  0  0
    2.8818    0.0545    5.6383 O   0  0  0  0  0  0  0  0  0  0  0  0
    3.1800    0.8081    6.8153 C   0  0  0  0  0  0  0  0  0  0  0  0
    2.4419   -4.0136    6.1996 C   0  0  0  0  0  0  0  0  0  0  0  0
    0.8014   -4.5794    1.6092 C   0  0  0  0  0  0  0  0  0  0  0  0
    2.0027   -2.9727   -2.5158 H   0  0  0  0  0  0  0  0  0  0  0  0
    1.4979   -1.4644   -3.3149 H   0  0  0  0  0  0  0  0  0  0  0  0
    2.9576   -1.4867   -2.2965 H   0  0  0  0  0  0  0  0  0  0  0  0
    1.0541   -0.4400   -1.1008 H   0  0  0  0  0  0  0  0  0  0  0  0
    0.0992   -1.9260   -1.3201 H   0  0  0  0  0  0  0  0  0  0  0  0
    2.1309   -5.1764    3.8308 H   0  0  0  0  0  0  0  0  0  0  0  0
    4.3248   -3.1376    2.7546 H   0  0  0  0  0  0  0  0  0  0  0  0
    6.5595   -2.5866    1.8818 H   0  0  0  0  0  0  0  0  0  0  0  0
    7.1569   -0.2442    1.4144 H   0  0  0  0  0  0  0  0  0  0  0  0
    2.3747    0.6846    7.5395 H   0  0  0  0  0  0  0  0  0  0  0  0
    4.1151    0.4520    7.2475 H   0  0  0  0  0  0  0  0  0  0  0  0
    3.2775    1.8624    6.5566 H   0  0  0  0  0  0  0  0  0  0  0  0
    2.2866   -5.0911    6.1432 H   0  0  0  0  0  0  0  0  0  0  0  0
    3.4460   -3.8102    6.5715 H   0  0  0  0  0  0  0  0  0  0  0  0
    1.7081   -3.5757    6.8762 H   0  0  0  0  0  0  0  0  0  0  0  0
    1.5268   -4.9296    0.8749 H   0  0  0  0  0  0  0  0  0  0  0  0
    0.3668   -5.4346    2.1269 H   0  0  0  0  0  0  0  0  0  0  0  0
    0.0131   -4.0216    1.1039 H   0  0  0  0  0  0  0  0  0  0  0  0
  1  2  1  0  0  0  0
  1 27  1  0  0  0  0
  1 28  1  0  0  0  0
  1 29  1  0  0  0  0
  2  3  1  0  0  0  0
  2 30  1  0  0  0  0
  2 31  1  0  0  0  0
  3  4  1  0  0  0  0
  4  5  2  0  0  0  0
  4  6  1  0  0  0  0
  6 11  1  0  0  0  0
  6  7  2  0  0  0  0
  7  8  1  0  0  0  0
  7 26  1  0  0  0  0
  8  9  1  0  0  0  0
  8 32  1  0  0  0  0
  9 10  2  0  0  0  0
  9 25  1  0  0  0  0
 10 11  1  0  0  0  0
 10 21  1  0  0  0  0
 11 12  1  1  0  0  0
 11 13  1  0  0  0  0
 13 18  2  0  0  0  0
 13 14  1  0  0  0  0
 14 15  2  0  0  0  0
 14 33  1  0  0  0  0
 15 16  1  0  0  0  0
 15 34  1  0  0  0  0
 16 17  2  0  0  0  0
 16 35  1  0  0  0  0
 17 18  1  0  0  0  0
 17 20  1  0  0  0  0
 18 19  1  0  0  0  0
 21 22  2  0  0  0  0
 21 23  1  0  0  0  0
 23 24  1  0  0  0  0
 24 36  1  0  0  0  0
 24 37  1  0  0  0  0
 24 38  1  0  0  0  0
 25 39  1  0  0  0  0
 25 40  1  0  0  0  0
 25 41  1  0  0  0  0
 26 42  1  0  0  0  0
 26 43  1  0  0  0  0
 26 44  1  0  0  0  0
M  END
$$$$
