ZINC33955641
 OpenBabel08292219463D

 51 51  0  0  0  0  0  0  0  0999 V2000
   -2.3781   -2.5590   -2.2328 C   0  0  0  0  0  0  0  0  0  0  0  0
   -1.1907   -2.4678   -1.3093 C   0  0  0  0  0  0  0  0  0  0  0  0
   -1.1140   -1.4314   -0.4934 C   0  0  0  0  0  0  0  0  0  0  0  0
    0.0157   -1.2115    0.4702 C   0  0  0  0  0  0  0  0  0  0  0  0
    0.7948   -2.5125    0.6739 C   0  0  0  0  0  0  0  0  0  0  0  0
    1.1353   -3.0973   -0.7023 C   0  0  0  0  0  0  0  0  0  0  0  0
   -0.1653   -3.5626   -1.3644 C   0  0  0  0  0  0  0  0  0  0  0  0
   -0.5471   -0.7417    1.8131 C   0  0  0  0  0  0  0  0  0  0  0  0
    0.9552   -0.1395   -0.0858 C   0  0  0  0  0  0  0  0  0  0  0  0
   -2.1899   -0.4428   -0.5315 C   0  0  0  0  0  0  0  0  0  0  0  0
   -3.4713   -0.8261   -0.3067 C   0  0  0  0  0  0  0  0  0  0  0  0
   -4.4970    0.1392   -0.2553 C   0  0  0  0  0  0  0  0  0  0  0  0
   -5.7816   -0.2450   -0.0299 C   0  0  0  0  0  0  0  0  0  0  0  0
   -6.8072    0.7203    0.0214 C   0  0  0  0  0  0  0  0  0  0  0  0
   -8.0700    0.3513    0.3513 C   0  0  0  0  0  0  0  0  0  0  0  0
   -8.3445   -1.0224    0.7685 C   0  0  0  0  0  0  0  0  0  0  0  0
   -9.1164   -1.8079    0.0133 C   0  0  0  0  0  0  0  0  0  0  0  0
   -9.6092   -1.3187   -1.3242 C   0  0  0  0  0  0  0  0  0  0  0  0
   -9.4166   -2.3397   -2.3053 O   0  0  0  0  0  0  0  0  0  0  0  0
   -7.7563   -1.5523    2.0508 C   0  0  0  0  0  0  0  0  0  0  0  0
   -4.1699    1.5973   -0.4503 C   0  0  0  0  0  0  0  0  0  0  0  0
   -2.2559   -3.4135   -2.8985 H   0  0  0  0  0  0  0  0  0  0  0  0
   -3.2872   -2.6840   -1.6445 H   0  0  0  0  0  0  0  0  0  0  0  0
   -2.4501   -1.6457   -2.8234 H   0  0  0  0  0  0  0  0  0  0  0  0
    1.7143   -2.3066    1.2219 H   0  0  0  0  0  0  0  0  0  0  0  0
    0.1836   -3.2217    1.2321 H   0  0  0  0  0  0  0  0  0  0  0  0
    1.6107   -2.3332   -1.3173 H   0  0  0  0  0  0  0  0  0  0  0  0
    1.8083   -3.9463   -0.5830 H   0  0  0  0  0  0  0  0  0  0  0  0
   -0.5461   -4.4409   -0.8432 H   0  0  0  0  0  0  0  0  0  0  0  0
    0.0331   -3.8199   -2.4048 H   0  0  0  0  0  0  0  0  0  0  0  0
   -1.1533   -1.5350    2.2505 H   0  0  0  0  0  0  0  0  0  0  0  0
    0.2748   -0.4991    2.4866 H   0  0  0  0  0  0  0  0  0  0  0  0
   -1.1639    0.1437    1.6588 H   0  0  0  0  0  0  0  0  0  0  0  0
    0.4047    0.7916   -0.2205 H   0  0  0  0  0  0  0  0  0  0  0  0
    1.7764    0.0217    0.6126 H   0  0  0  0  0  0  0  0  0  0  0  0
    1.3537   -0.4680   -1.0457 H   0  0  0  0  0  0  0  0  0  0  0  0
   -1.9646    0.5929   -0.7387 H   0  0  0  0  0  0  0  0  0  0  0  0
   -3.7058   -1.8711   -0.1670 H   0  0  0  0  0  0  0  0  0  0  0  0
   -6.0160   -1.2900    0.1098 H   0  0  0  0  0  0  0  0  0  0  0  0
   -6.5877    1.7539   -0.2020 H   0  0  0  0  0  0  0  0  0  0  0  0
   -8.8726    1.0724    0.3058 H   0  0  0  0  0  0  0  0  0  0  0  0
   -9.3876   -2.7938    0.3610 H   0  0  0  0  0  0  0  0  0  0  0  0
  -10.6698   -1.0772   -1.2545 H   0  0  0  0  0  0  0  0  0  0  0  0
   -9.0519   -0.4276   -1.6130 H   0  0  0  0  0  0  0  0  0  0  0  0
   -9.7121   -2.0935   -3.1925 H   0  0  0  0  0  0  0  0  0  0  0  0
   -8.4813   -1.4394    2.8569 H   0  0  0  0  0  0  0  0  0  0  0  0
   -7.5098   -2.6070    1.9289 H   0  0  0  0  0  0  0  0  0  0  0  0
   -6.8526   -0.9936    2.2941 H   0  0  0  0  0  0  0  0  0  0  0  0
   -4.2379    1.8465   -1.5092 H   0  0  0  0  0  0  0  0  0  0  0  0
   -4.8769    2.2067    0.1126 H   0  0  0  0  0  0  0  0  0  0  0  0
   -3.1581    1.7933   -0.0952 H   0  0  0  0  0  0  0  0  0  0  0  0
  1  2  1  0  0  0  0
  1 22  1  0  0  0  0
  1 23  1  0  0  0  0
  1 24  1  0  0  0  0
  2  7  1  0  0  0  0
  2  3  2  0  0  0  0
  3  4  1  0  0  0  0
  3 10  1  0  0  0  0
  4  5  1  0  0  0  0
  4  8  1  0  0  0  0
  4  9  1  0  0  0  0
  5  6  1  0  0  0  0
  5 25  1  0  0  0  0
  5 26  1  0  0  0  0
  6  7  1  0  0  0  0
  6 27  1  0  0  0  0
  6 28  1  0  0  0  0
  7 29  1  0  0  0  0
  7 30  1  0  0  0  0
  8 31  1  0  0  0  0
  8 32  1  0  0  0  0
  8 33  1  0  0  0  0
  9 34  1  0  0  0  0
  9 35  1  0  0  0  0
  9 36  1  0  0  0  0
 10 11  2  0  0  0  0
 10 37  1  0  0  0  0
 11 12  1  0  0  0  0
 11 38  1  0  0  0  0
 12 13  2  0  0  0  0
 12 21  1  0  0  0  0
 13 14  1  0  0  0  0
 13 39  1  0  0  0  0
 14 15  2  0  0  0  0
 14 40  1  0  0  0  0
 15 16  1  0  0  0  0
 15 41  1  0  0  0  0
 16 17  2  0  0  0  0
 16 20  1  0  0  0  0
 17 18  1  0  0  0  0
 17 42  1  0  0  0  0
 18 19  1  0  0  0  0
 18 43  1  0  0  0  0
 18 44  1  0  0  0  0
 19 45  1  0  0  0  0
 20 46  1  0  0  0  0
 20 47  1  0  0  0  0
 20 48  1  0  0  0  0
 21 49  1  0  0  0  0
 21 50  1  0  0  0  0
 21 51  1  0  0  0  0
M  END
$$$$
