ZINC08221225
 OpenBabel08292219463D

 98 99  0  0  1  0  0  0  0  0999 V2000
    4.2362    4.6918    1.8822 C   0  0  0  0  0  0  0  0  0  0  0  0
    4.5258    5.8850    1.0083 C   0  0  0  0  0  0  0  0  0  0  0  0
    3.7099    6.1302   -0.0032 C   0  0  0  0  0  0  0  0  0  0  0  0
    3.8792    7.2835   -0.9490 C   0  0  0  0  0  0  0  0  0  0  0  0
    5.2940    7.8514   -0.8415 C   0  0  0  0  0  0  0  0  0  0  0  0
    5.6180    8.0862    0.6389 C   0  0  1  0  0  0  0  0  0  0  0  0
    4.8752    8.7363    1.1243 H   0  0  0  0  0  0  0  0  0  0  0  0
    5.7242    6.7277    1.3349 C   0  0  0  0  0  0  0  0  0  0  0  0
    6.8604    8.7828    0.7538 O   0  0  0  0  0  0  0  0  0  0  0  0
    3.6287    6.8062   -2.3809 C   0  0  0  0  0  0  0  0  0  0  0  0
    2.8703    8.3791   -0.5987 C   0  0  0  0  0  0  0  0  0  0  0  0
    2.6170    5.2511   -0.2093 C   0  0  0  0  0  0  0  0  0  0  0  0
    2.8394    3.9247   -0.4044 C   0  0  0  0  0  0  0  0  0  0  0  0
    1.7601    3.0615   -0.6621 C   0  0  0  0  0  0  0  0  0  0  0  0
    1.9834    1.7293   -0.8581 C   0  0  0  0  0  0  0  0  0  0  0  0
    0.9073    0.8686   -1.1150 C   0  0  0  0  0  0  0  0  0  0  0  0
    1.1325   -0.4753   -1.3127 C   0  0  0  0  0  0  0  0  0  0  0  0
    0.0577   -1.3350   -1.5693 C   0  0  0  0  0  0  0  0  0  0  0  0
    0.2831   -2.6799   -1.7671 C   0  0  0  0  0  0  0  0  0  0  0  0
   -0.7913   -3.5392   -2.0236 C   0  0  0  0  0  0  0  0  0  0  0  0
   -0.5659   -4.8841   -2.2214 C   0  0  0  0  0  0  0  0  0  0  0  0
   -1.6407   -5.7438   -2.4780 C   0  0  0  0  0  0  0  0  0  0  0  0
   -1.4154   -7.0877   -2.6757 C   0  0  0  0  0  0  0  0  0  0  0  0
   -0.0119   -7.6332   -2.6159 C   0  0  0  0  0  0  0  0  0  0  0  0
   -2.4916   -7.9484   -2.9326 C   0  0  0  0  0  0  0  0  0  0  0  0
   -2.2683   -9.2806   -3.1286 C   0  0  0  0  0  0  0  0  0  0  0  0
   -3.3475  -10.1438   -3.3863 C   0  0  0  0  0  0  0  0  0  0  0  0
   -3.1252  -11.4702   -3.5814 C   0  0  0  0  0  0  0  0  0  0  0  0
   -1.7217  -12.0158   -3.5215 C   0  0  0  0  0  0  0  0  0  0  0  0
   -4.2135  -12.3407   -3.8412 C   0  0  0  0  0  0  0  0  0  0  0  0
   -3.9948  -13.6452   -4.0331 C   0  0  0  0  0  0  0  0  0  0  0  0
   -5.1518  -14.5705   -4.3093 C   0  0  1  0  0  0  0  0  0  0  0  0
   -6.0884  -13.9938   -4.3259 H   0  0  0  0  0  0  0  0  0  0  0  0
   -4.9662  -15.2115   -5.6534 C   0  0  0  0  0  0  0  0  0  0  0  0
   -5.1891  -16.4631   -5.8971 C   0  0  0  0  0  0  0  0  0  0  0  0
   -5.6546  -17.4503   -4.8671 C   0  0  1  0  0  0  0  0  0  0  0  0
   -4.8233  -18.1126   -4.5836 H   0  0  0  0  0  0  0  0  0  0  0  0
   -6.2230  -16.7150   -3.6514 C   0  0  0  0  0  0  0  0  0  0  0  0
   -5.2159  -15.6420   -3.2187 C   0  0  0  0  0  0  0  0  0  0  0  0
   -3.8349  -16.2756   -3.0385 C   0  0  0  0  0  0  0  0  0  0  0  0
   -5.6669  -15.0085   -1.9011 C   0  0  0  0  0  0  0  0  0  0  0  0
   -6.6681  -18.2833   -5.4335 O   0  0  0  0  0  0  0  0  0  0  0  0
   -4.4912  -14.3440   -6.7905 C   0  0  0  0  0  0  0  0  0  0  0  0
   -1.3458   -0.7894   -1.6291 C   0  0  0  0  0  0  0  0  0  0  0  0
    0.3566    3.6070   -0.7219 C   0  0  0  0  0  0  0  0  0  0  0  0
    3.3333    4.1805    1.5171 H   0  0  0  0  0  0  0  0  0  0  0  0
    4.0749    5.0262    2.9176 H   0  0  0  0  0  0  0  0  0  0  0  0
    5.0891    3.9979    1.8496 H   0  0  0  0  0  0  0  0  0  0  0  0
    6.0100    7.1358   -1.2719 H   0  0  0  0  0  0  0  0  0  0  0  0
    5.3503    8.8022   -1.3918 H   0  0  0  0  0  0  0  0  0  0  0  0
    5.7779    6.8828    2.4226 H   0  0  0  0  0  0  0  0  0  0  0  0
    6.6361    6.2170    0.9919 H   0  0  0  0  0  0  0  0  0  0  0  0
    7.2569    9.0401    1.7471 H   0  0  0  0  0  0  0  0  0  0  0  0
    3.7523    7.6501   -3.0756 H   0  0  0  0  0  0  0  0  0  0  0  0
    2.6052    6.4114   -2.4620 H   0  0  0  0  0  0  0  0  0  0  0  0
    4.3485    6.0140   -2.6345 H   0  0  0  0  0  0  0  0  0  0  0  0
    2.9928    9.2252   -1.2908 H   0  0  0  0  0  0  0  0  0  0  0  0
    3.0434    8.7208    0.4325 H   0  0  0  0  0  0  0  0  0  0  0  0
    1.8494    7.9789   -0.6859 H   0  0  0  0  0  0  0  0  0  0  0  0
    1.5890    5.6425   -0.2113 H   0  0  0  0  0  0  0  0  0  0  0  0
    3.8639    3.5265   -0.3607 H   0  0  0  0  0  0  0  0  0  0  0  0
    3.0079    1.3311   -0.8145 H   0  0  0  0  0  0  0  0  0  0  0  0
   -0.1171    1.2669   -1.1587 H   0  0  0  0  0  0  0  0  0  0  0  0
    2.1569   -0.8736   -1.2690 H   0  0  0  0  0  0  0  0  0  0  0  0
    1.3075   -3.0781   -1.7234 H   0  0  0  0  0  0  0  0  0  0  0  0
   -1.8157   -3.1410   -2.0673 H   0  0  0  0  0  0  0  0  0  0  0  0
    0.4585   -5.2823   -2.1777 H   0  0  0  0  0  0  0  0  0  0  0  0
   -2.6652   -5.3456   -2.5217 H   0  0  0  0  0  0  0  0  0  0  0  0
   -0.0321   -8.7180   -2.7971 H   0  0  0  0  0  0  0  0  0  0  0  0
    0.4164   -7.4353   -1.6222 H   0  0  0  0  0  0  0  0  0  0  0  0
    0.6045   -7.1445   -3.3848 H   0  0  0  0  0  0  0  0  0  0  0  0
   -3.5161   -7.5502   -2.9762 H   0  0  0  0  0  0  0  0  0  0  0  0
   -1.2438   -9.6788   -3.0849 H   0  0  0  0  0  0  0  0  0  0  0  0
   -4.3719   -9.7456   -3.4300 H   0  0  0  0  0  0  0  0  0  0  0  0
   -1.7420  -13.1006   -3.7026 H   0  0  0  0  0  0  0  0  0  0  0  0
   -1.2935  -11.8179   -2.5278 H   0  0  0  0  0  0  0  0  0  0  0  0
   -1.1052  -11.5271   -4.2904 H   0  0  0  0  0  0  0  0  0  0  0  0
   -5.2380  -11.9425   -3.8849 H   0  0  0  0  0  0  0  0  0  0  0  0
   -2.9703  -14.0434   -3.9894 H   0  0  0  0  0  0  0  0  0  0  0  0
   -5.0380  -16.8614   -6.9113 H   0  0  0  0  0  0  0  0  0  0  0  0
   -7.1801  -16.2451   -3.9216 H   0  0  0  0  0  0  0  0  0  0  0  0
   -6.3845  -17.4311   -2.8322 H   0  0  0  0  0  0  0  0  0  0  0  0
   -3.8841  -17.0452   -2.2541 H   0  0  0  0  0  0  0  0  0  0  0  0
   -3.1111  -15.5004   -2.7467 H   0  0  0  0  0  0  0  0  0  0  0  0
   -3.5167  -16.7367   -3.9852 H   0  0  0  0  0  0  0  0  0  0  0  0
   -5.7120  -15.7811   -1.1194 H   0  0  0  0  0  0  0  0  0  0  0  0
   -6.6630  -14.5605   -2.0317 H   0  0  0  0  0  0  0  0  0  0  0  0
   -4.9500  -14.2286   -1.6050 H   0  0  0  0  0  0  0  0  0  0  0  0
   -7.1340  -19.0730   -4.8259 H   0  0  0  0  0  0  0  0  0  0  0  0
   -4.4040  -14.9514   -7.7034 H   0  0  0  0  0  0  0  0  0  0  0  0
   -3.5095  -13.9159   -6.5397 H   0  0  0  0  0  0  0  0  0  0  0  0
   -5.2135  -13.5315   -6.9583 H   0  0  0  0  0  0  0  0  0  0  0  0
   -2.0490   -1.6087   -1.8394 H   0  0  0  0  0  0  0  0  0  0  0  0
   -1.4123   -0.0352   -2.4271 H   0  0  0  0  0  0  0  0  0  0  0  0
   -1.6005   -0.3261   -0.6645 H   0  0  0  0  0  0  0  0  0  0  0  0
   -0.3466    2.7877   -0.9322 H   0  0  0  0  0  0  0  0  0  0  0  0
    0.2901    4.3612   -1.5199 H   0  0  0  0  0  0  0  0  0  0  0  0
    0.1019    4.0703    0.2427 H   0  0  0  0  0  0  0  0  0  0  0  0
  1  2  1  0  0  0  0
  1 46  1  0  0  0  0
  1 47  1  0  0  0  0
  1 48  1  0  0  0  0
  2  8  1  0  0  0  0
  2  3  2  0  0  0  0
  3  4  1  0  0  0  0
  3 12  1  0  0  0  0
  4  5  1  0  0  0  0
  4 10  1  0  0  0  0
  4 11  1  0  0  0  0
  5  6  1  0  0  0  0
  5 49  1  0  0  0  0
  5 50  1  0  0  0  0
  6  7  1  1  0  0  0
  6  8  1  0  0  0  0
  6  9  1  0  0  0  0
  8 51  1  0  0  0  0
  8 52  1  0  0  0  0
  9 53  1  0  0  0  0
 10 54  1  0  0  0  0
 10 55  1  0  0  0  0
 10 56  1  0  0  0  0
 11 57  1  0  0  0  0
 11 58  1  0  0  0  0
 11 59  1  0  0  0  0
 12 13  2  0  0  0  0
 12 60  1  0  0  0  0
 13 14  1  0  0  0  0
 13 61  1  0  0  0  0
 14 15  2  0  0  0  0
 14 45  1  0  0  0  0
 15 16  1  0  0  0  0
 15 62  1  0  0  0  0
 16 17  2  0  0  0  0
 16 63  1  0  0  0  0
 17 18  1  0  0  0  0
 17 64  1  0  0  0  0
 18 19  2  0  0  0  0
 18 44  1  0  0  0  0
 19 20  1  0  0  0  0
 19 65  1  0  0  0  0
 20 21  2  0  0  0  0
 20 66  1  0  0  0  0
 21 22  1  0  0  0  0
 21 67  1  0  0  0  0
 22 23  2  0  0  0  0
 22 68  1  0  0  0  0
 23 24  1  0  0  0  0
 23 25  1  0  0  0  0
 24 69  1  0  0  0  0
 24 70  1  0  0  0  0
 24 71  1  0  0  0  0
 25 26  2  0  0  0  0
 25 72  1  0  0  0  0
 26 27  1  0  0  0  0
 26 73  1  0  0  0  0
 27 28  2  0  0  0  0
 27 74  1  0  0  0  0
 28 29  1  0  0  0  0
 28 30  1  0  0  0  0
 29 75  1  0  0  0  0
 29 76  1  0  0  0  0
 29 77  1  0  0  0  0
 30 31  2  0  0  0  0
 30 78  1  0  0  0  0
 31 32  1  0  0  0  0
 31 79  1  0  0  0  0
 32 33  1  1  0  0  0
 32 39  1  0  0  0  0
 32 34  1  0  0  0  0
 34 35  2  0  0  0  0
 34 43  1  0  0  0  0
 35 36  1  0  0  0  0
 35 80  1  0  0  0  0
 36 37  1  1  0  0  0
 36 38  1  0  0  0  0
 36 42  1  0  0  0  0
 38 39  1  0  0  0  0
 38 81  1  0  0  0  0
 38 82  1  0  0  0  0
 39 40  1  0  0  0  0
 39 41  1  0  0  0  0
 40 83  1  0  0  0  0
 40 84  1  0  0  0  0
 40 85  1  0  0  0  0
 41 86  1  0  0  0  0
 41 87  1  0  0  0  0
 41 88  1  0  0  0  0
 42 89  1  0  0  0  0
 43 90  1  0  0  0  0
 43 91  1  0  0  0  0
 43 92  1  0  0  0  0
 44 93  1  0  0  0  0
 44 94  1  0  0  0  0
 44 95  1  0  0  0  0
 45 96  1  0  0  0  0
 45 97  1  0  0  0  0
 45 98  1  0  0  0  0
M  END
$$$$
