ZINC00057501
 OpenBabel08292219463D

 29 30  0  0  0  0  0  0  0  0999 V2000
   -0.0184    1.5028    0.0103 C   0  0  0  0  0  0  0  0  0  0  0  0
    0.0021   -0.0041    0.0020 C   0  0  0  0  0  0  0  0  0  0  0  0
    0.0060   -0.6990   -1.1975 C   0  0  0  0  0  0  0  0  0  0  0  0
    0.0255   -2.0842   -1.1605 C   0  0  0  0  0  0  0  0  0  0  0  0
    0.0397   -2.6984    0.0111 N   0  0  0  0  0  0  0  0  0  0  0  0
    0.0354   -2.0045    1.1396 C   0  0  0  0  0  0  0  0  0  0  0  0
    0.0220   -0.6794    1.1390 N   0  0  0  0  0  0  0  0  0  0  0  0
    0.0502   -2.6794    2.3478 N   0  0  0  0  0  2  0  0  0  0  0  0
    0.0728   -4.3351    2.3711 S   0  0  0  0  0  0  0  0  0  0  0  0
   -1.1693   -4.7659    1.8317 O   0  0  0  0  0  0  0  0  0  0  0  0
    1.3211   -4.7320    1.8203 O   0  0  0  0  0  0  0  0  0  0  0  0
    0.0874   -4.8322    4.0614 C   0  0  0  0  0  0  0  0  0  0  0  0
    1.2914   -5.0051    4.7193 C   0  0  0  0  0  0  0  0  0  0  0  0
    1.3064   -5.3947    6.0442 C   0  0  0  0  0  0  0  0  0  0  0  0
    0.1102   -5.6129    6.7159 C   0  0  0  0  0  0  0  0  0  0  0  0
   -1.0974   -5.4383    6.0520 C   0  0  0  0  0  0  0  0  0  0  0  0
   -1.1053   -5.0432    4.7287 C   0  0  0  0  0  0  0  0  0  0  0  0
    0.1218   -6.0074    8.0557 N   0  0  0  0  0  0  0  0  0  0  0  0
    1.0042    1.8801    0.0026 H   0  0  0  0  0  0  0  0  0  0  0  0
   -0.5455    1.8639   -0.8728 H   0  0  0  0  0  0  0  0  0  0  0  0
   -0.5286    1.8543    0.9071 H   0  0  0  0  0  0  0  0  0  0  0  0
   -0.0062   -0.1724   -2.1403 H   0  0  0  0  0  0  0  0  0  0  0  0
    0.0287   -2.6554   -2.0771 H   0  0  0  0  0  0  0  0  0  0  0  0
    2.2210   -4.8356    4.1963 H   0  0  0  0  0  0  0  0  0  0  0  0
    2.2470   -5.5298    6.5573 H   0  0  0  0  0  0  0  0  0  0  0  0
   -2.0292   -5.6075    6.5713 H   0  0  0  0  0  0  0  0  0  0  0  0
   -2.0439   -4.9030    4.2133 H   0  0  0  0  0  0  0  0  0  0  0  0
    0.9657   -6.1293    8.5182 H   0  0  0  0  0  0  0  0  0  0  0  0
   -0.7141   -6.1595    8.5238 H   0  0  0  0  0  0  0  0  0  0  0  0
  1  2  1  0  0  0  0
  1 19  1  0  0  0  0
  1 20  1  0  0  0  0
  1 21  1  0  0  0  0
  2  7  2  0  0  0  0
  2  3  1  0  0  0  0
  3  4  2  0  0  0  0
  3 22  1  0  0  0  0
  4  5  1  0  0  0  0
  4 23  1  0  0  0  0
  5  6  2  0  0  0  0
  6  7  1  0  0  0  0
  6  8  1  0  0  0  0
  8  9  1  0  0  0  0
  9 10  2  0  0  0  0
  9 11  2  0  0  0  0
  9 12  1  0  0  0  0
 12 17  2  0  0  0  0
 12 13  1  0  0  0  0
 13 14  2  0  0  0  0
 13 24  1  0  0  0  0
 14 15  1  0  0  0  0
 14 25  1  0  0  0  0
 15 16  2  0  0  0  0
 15 18  1  0  0  0  0
 16 17  1  0  0  0  0
 16 26  1  0  0  0  0
 17 27  1  0  0  0  0
 18 28  1  0  0  0  0
 18 29  1  0  0  0  0
M  END
$$$$
