ZINC00155269
 OpenBabel08292219463D

 44 45  0  0  1  0  0  0  0  0999 V2000
   -0.0184    1.5028    0.0103 C   0  0  0  0  0  0  0  0  0  0  0  0
    0.0021   -0.0041    0.0020 C   0  0  0  0  0  0  0  0  0  0  0  0
    0.0057   -0.6888   -1.1991 C   0  0  0  0  0  0  0  0  0  0  0  0
    0.0245   -2.0707   -1.2067 C   0  0  0  0  0  0  0  0  0  0  0  0
    0.0400   -2.7685   -0.0132 C   0  0  0  0  0  0  0  0  0  0  0  0
    0.0373   -2.0840    1.1875 C   0  0  0  0  0  0  0  0  0  0  0  0
    0.0229   -0.7015    1.1951 C   0  0  0  0  0  0  0  0  0  0  0  0
    0.0252    0.0449    2.5043 C   0  0  2  0  0  0  0  0  0  0  0  0
   -0.5775    0.9481    2.4087 H   0  0  0  0  0  0  0  0  0  0  0  0
    1.4392    0.4205    2.8659 C   0  0  0  0  0  0  0  0  0  0  0  0
    2.2801   -0.5186    3.4333 C   0  0  0  0  0  0  0  0  0  0  0  0
    3.5771   -0.1741    3.7650 C   0  0  0  0  0  0  0  0  0  0  0  0
    4.0333    1.1093    3.5289 C   0  0  0  0  0  0  0  0  0  0  0  0
    3.1926    2.0480    2.9606 C   0  0  0  0  0  0  0  0  0  0  0  0
    1.8970    1.7024    2.6250 C   0  0  0  0  0  0  0  0  0  0  0  0
   -0.5232   -0.7875    3.5282 O   0  0  0  0  0  0  0  0  0  0  0  0
   -1.1871   -0.0677    4.5690 C   0  0  0  0  0  0  0  0  0  0  0  0
   -1.7316   -1.0541    5.6040 C   0  0  0  0  0  0  0  0  0  0  0  0
   -0.6124   -1.7427    6.2606 N   0  3  0  0  0  0  0  0  0  0  0  0
    0.1780   -0.7709    7.0280 C   0  0  0  0  0  0  0  0  0  0  0  0
   -1.1355   -2.7734    7.1671 C   0  0  0  0  0  0  0  0  0  0  0  0
    1.0042    1.8801    0.0026 H   0  0  0  0  0  0  0  0  0  0  0  0
   -0.5455    1.8639   -0.8728 H   0  0  0  0  0  0  0  0  0  0  0  0
   -0.5286    1.8543    0.9071 H   0  0  0  0  0  0  0  0  0  0  0  0
   -0.0064   -0.1437   -2.1314 H   0  0  0  0  0  0  0  0  0  0  0  0
    0.0266   -2.6056   -2.1449 H   0  0  0  0  0  0  0  0  0  0  0  0
    0.0540   -3.8484   -0.0191 H   0  0  0  0  0  0  0  0  0  0  0  0
    0.0491   -2.6290    2.1199 H   0  0  0  0  0  0  0  0  0  0  0  0
    1.9237   -1.5212    3.6177 H   0  0  0  0  0  0  0  0  0  0  0  0
    4.2339   -0.9075    4.2089 H   0  0  0  0  0  0  0  0  0  0  0  0
    5.0464    1.3786    3.7887 H   0  0  0  0  0  0  0  0  0  0  0  0
    3.5489    3.0508    2.7765 H   0  0  0  0  0  0  0  0  0  0  0  0
    1.2413    2.4348    2.1777 H   0  0  0  0  0  0  0  0  0  0  0  0
   -0.4813    0.6101    5.0492 H   0  0  0  0  0  0  0  0  0  0  0  0
   -2.0112    0.5062    4.1453 H   0  0  0  0  0  0  0  0  0  0  0  0
   -2.3135   -0.5133    6.3503 H   0  0  0  0  0  0  0  0  0  0  0  0
   -2.3682   -1.7867    5.1080 H   0  0  0  0  0  0  0  0  0  0  0  0
    1.0085   -1.2818    7.5152 H   0  0  0  0  0  0  0  0  0  0  0  0
    0.5661   -0.0061    6.3553 H   0  0  0  0  0  0  0  0  0  0  0  0
   -0.4543   -0.3037    7.7830 H   0  0  0  0  0  0  0  0  0  0  0  0
   -1.7219   -3.4944    6.5977 H   0  0  0  0  0  0  0  0  0  0  0  0
   -0.3050   -3.2843    7.6543 H   0  0  0  0  0  0  0  0  0  0  0  0
   -1.7678   -2.3062    7.9221 H   0  0  0  0  0  0  0  0  0  0  0  0
   -0.0270   -2.1751    5.5617 H   0  0  0  0  0  0  0  0  0  0  0  0
  1  2  1  0  0  0  0
  1 22  1  0  0  0  0
  1 23  1  0  0  0  0
  1 24  1  0  0  0  0
  2  7  2  0  0  0  0
  2  3  1  0  0  0  0
  3  4  2  0  0  0  0
  3 25  1  0  0  0  0
  4  5  1  0  0  0  0
  4 26  1  0  0  0  0
  5  6  2  0  0  0  0
  5 27  1  0  0  0  0
  6  7  1  0  0  0  0
  6 28  1  0  0  0  0
  7  8  1  0  0  0  0
  8  9  1  6  0  0  0
  8 10  1  0  0  0  0
  8 16  1  0  0  0  0
 10 15  2  0  0  0  0
 10 11  1  0  0  0  0
 11 12  2  0  0  0  0
 11 29  1  0  0  0  0
 12 13  1  0  0  0  0
 12 30  1  0  0  0  0
 13 14  2  0  0  0  0
 13 31  1  0  0  0  0
 14 15  1  0  0  0  0
 14 32  1  0  0  0  0
 15 33  1  0  0  0  0
 16 17  1  0  0  0  0
 17 18  1  0  0  0  0
 17 34  1  0  0  0  0
 17 35  1  0  0  0  0
 18 19  1  0  0  0  0
 18 36  1  0  0  0  0
 18 37  1  0  0  0  0
 19 20  1  0  0  0  0
 19 21  1  0  0  0  0
 19 44  1  0  0  0  0
 20 38  1  0  0  0  0
 20 39  1  0  0  0  0
 20 40  1  0  0  0  0
 21 41  1  0  0  0  0
 21 42  1  0  0  0  0
 21 43  1  0  0  0  0
M  CHG  1  19   1
M  END
$$$$
