ZINC03920266
 OpenBabel08292219463D

 64 68  0  0  1  0  0  0  0  0999 V2000
   -3.6836    0.0057    4.3688 C   0  0  0  0  0  0  0  0  0  0  0  0
   -4.3276    0.2842    3.0092 C   0  0  1  0  0  0  0  0  0  0  0  0
   -3.7009   -0.1287    2.2187 H   0  0  0  0  0  0  0  0  0  0  0  0
   -5.7117   -0.3677    2.9565 C   0  0  2  0  0  0  0  0  0  0  0  0
   -5.6092   -1.4486    3.0529 H   0  0  0  0  0  0  0  0  0  0  0  0
   -6.3740   -0.0340    1.6162 C   0  0  2  0  0  0  0  0  0  0  0  0
   -5.7859   -0.4594    0.8030 H   0  0  0  0  0  0  0  0  0  0  0  0
   -6.4419    1.4880    1.4577 C   0  0  0  0  0  0  0  0  0  0  0  0
   -5.0296    2.0683    1.5683 C   0  0  1  0  0  0  0  0  0  0  0  0
   -5.0764    3.1551    1.4990 H   0  0  0  0  0  0  0  0  0  0  0  0
   -4.4597    1.6951    2.8246 O   0  0  0  0  0  0  0  0  0  0  0  0
   -4.2200    1.5576    0.5073 O   0  0  0  0  0  0  0  0  0  0  0  0
   -2.9752    2.2405    0.3455 C   0  0  1  0  0  0  0  0  0  0  0  0
   -3.0849    3.2707    0.6841 H   0  0  0  0  0  0  0  0  0  0  0  0
   -1.9071    1.5455    1.1867 C   0  0  0  0  0  0  0  0  0  0  0  0
   -0.5455    2.1538    0.8337 C   0  0  1  0  0  0  0  0  0  0  0  0
   -0.1765    1.7174   -0.5823 C   0  0  0  0  0  0  0  0  0  0  0  0
   -1.3084    1.9996   -1.5367 C   0  0  0  0  0  0  0  0  0  0  0  0
   -2.5915    2.2349   -1.1120 C   0  0  0  0  0  0  0  0  0  0  0  0
   -3.6056    2.4863   -2.0463 C   0  0  0  0  0  0  0  0  0  0  0  0
   -3.3234    2.5034   -3.4108 C   0  0  0  0  0  0  0  0  0  0  0  0
   -2.0043    2.2644   -3.8468 C   0  0  0  0  0  0  0  0  0  0  0  0
   -1.0077    2.0148   -2.9055 C   0  0  0  0  0  0  0  0  0  0  0  0
    0.2637    1.7846   -3.3172 O   0  0  0  0  0  0  0  0  0  0  0  0
   -1.6881    2.2790   -5.2854 C   0  0  0  0  0  0  0  0  0  0  0  0
   -0.5502    2.0736   -5.6609 O   0  0  0  0  0  0  0  0  0  0  0  0
   -2.7565    2.5444   -6.2716 C   0  0  0  0  0  0  0  0  0  0  0  0
   -2.4670    2.5585   -7.6332 C   0  0  0  0  0  0  0  0  0  0  0  0
   -3.4730    2.8080   -8.5494 C   0  0  0  0  0  0  0  0  0  0  0  0
   -4.7670    3.0445   -8.1217 C   0  0  0  0  0  0  0  0  0  0  0  0
   -5.0723    3.0333   -6.7725 C   0  0  0  0  0  0  0  0  0  0  0  0
   -4.0721    2.7836   -5.8368 C   0  0  0  0  0  0  0  0  0  0  0  0
   -4.3886    2.7686   -4.3931 C   0  0  0  0  0  0  0  0  0  0  0  0
   -5.5261    2.9748   -4.0170 O   0  0  0  0  0  0  0  0  0  0  0  0
   -4.8722    2.7143   -1.6188 O   0  0  0  0  0  0  0  0  0  0  0  0
   -0.6292    3.6571    0.8964 C   0  0  0  0  0  0  0  0  0  0  0  0
   -0.8608    4.2912   -0.1049 O   0  0  0  0  0  0  0  0  0  0  0  0
   -0.4239    4.3692    2.2086 C   0  0  0  0  0  0  0  0  0  0  0  0
    0.4427    1.6869    1.7544 O   0  0  0  0  0  0  0  0  0  0  0  0
   -6.5165    0.1329    4.0259 O   0  0  0  0  0  0  0  0  0  0  0  0
   -4.3106    0.4183    5.1592 H   0  0  0  0  0  0  0  0  0  0  0  0
   -3.5829   -1.0705    4.5095 H   0  0  0  0  0  0  0  0  0  0  0  0
   -2.6985    0.4707    4.4064 H   0  0  0  0  0  0  0  0  0  0  0  0
   -7.0709    1.9083    2.2425 H   0  0  0  0  0  0  0  0  0  0  0  0
   -6.8615    1.7344    0.4824 H   0  0  0  0  0  0  0  0  0  0  0  0
   -2.1153    1.6999    2.2455 H   0  0  0  0  0  0  0  0  0  0  0  0
   -1.9019    0.4782    0.9653 H   0  0  0  0  0  0  0  0  0  0  0  0
    0.0372    0.6485   -0.5846 H   0  0  0  0  0  0  0  0  0  0  0  0
    0.7106    2.2616   -0.9062 H   0  0  0  0  0  0  0  0  0  0  0  0
    0.4604    0.8526   -3.4840 H   0  0  0  0  0  0  0  0  0  0  0  0
   -1.4587    2.3746   -7.9737 H   0  0  0  0  0  0  0  0  0  0  0  0
   -3.2465    2.8185   -9.6053 H   0  0  0  0  0  0  0  0  0  0  0  0
   -5.5443    3.2388   -8.8460 H   0  0  0  0  0  0  0  0  0  0  0  0
   -6.0847    3.2187   -6.4454 H   0  0  0  0  0  0  0  0  0  0  0  0
   -5.0459    3.6343   -1.3767 H   0  0  0  0  0  0  0  0  0  0  0  0
    0.4892    4.1632    2.5603 H   0  0  0  0  0  0  0  0  0  0  0  0
   -0.5211    5.4443    2.0576 H   0  0  0  0  0  0  0  0  0  0  0  0
   -1.1735    4.0337    2.9252 H   0  0  0  0  0  0  0  0  0  0  0  0
    1.3331    2.0203    1.5782 H   0  0  0  0  0  0  0  0  0  0  0  0
   -8.1890   -0.3867    0.7108 H   0  0  0  0  0  0  0  0  0  0  0  0
   -7.7168   -1.5879    1.7596 H   0  0  0  0  0  0  0  0  0  0  0  0
   -6.1536   -0.0398    4.9054 H   0  0  0  0  0  0  0  0  0  0  0  0
   -7.7421   -0.5813    1.6053 N   0  3  0  0  0  0  0  0  0  0  0  0
   -8.2878   -0.1410    2.3553 H   0  0  0  0  0  0  0  0  0  0  0  0
  1  2  1  0  0  0  0
  1 41  1  0  0  0  0
  1 42  1  0  0  0  0
  1 43  1  0  0  0  0
  2  3  1  6  0  0  0
  2 11  1  0  0  0  0
  2  4  1  0  0  0  0
  4  5  1  1  0  0  0
  4  6  1  0  0  0  0
  4 40  1  0  0  0  0
  6  7  1  6  0  0  0
  6  8  1  0  0  0  0
  6 63  1  0  0  0  0
  8  9  1  0  0  0  0
  8 44  1  0  0  0  0
  8 45  1  0  0  0  0
  9 10  1  6  0  0  0
  9 11  1  0  0  0  0
  9 12  1  0  0  0  0
 12 13  1  0  0  0  0
 13 14  1  1  0  0  0
 13 19  1  0  0  0  0
 13 15  1  0  0  0  0
 15 16  1  0  0  0  0
 15 46  1  0  0  0  0
 15 47  1  0  0  0  0
 16 17  1  0  0  0  0
 16 36  1  1  0  0  0
 16 39  1  0  0  0  0
 17 18  1  0  0  0  0
 17 48  1  0  0  0  0
 17 49  1  0  0  0  0
 18 23  2  0  0  0  0
 18 19  1  0  0  0  0
 19 20  2  0  0  0  0
 20 21  1  0  0  0  0
 20 35  1  0  0  0  0
 21 33  1  0  0  0  0
 21 22  2  0  0  0  0
 22 23  1  0  0  0  0
 22 25  1  0  0  0  0
 23 24  1  0  0  0  0
 24 50  1  0  0  0  0
 25 26  2  0  0  0  0
 25 27  1  0  0  0  0
 27 32  2  0  0  0  0
 27 28  1  0  0  0  0
 28 29  2  0  0  0  0
 28 51  1  0  0  0  0
 29 30  1  0  0  0  0
 29 52  1  0  0  0  0
 30 31  2  0  0  0  0
 30 53  1  0  0  0  0
 31 32  1  0  0  0  0
 31 54  1  0  0  0  0
 32 33  1  0  0  0  0
 33 34  2  0  0  0  0
 35 55  1  0  0  0  0
 36 37  2  0  0  0  0
 36 38  1  0  0  0  0
 38 56  1  0  0  0  0
 38 57  1  0  0  0  0
 38 58  1  0  0  0  0
 39 59  1  0  0  0  0
 40 62  1  0  0  0  0
 60 63  1  0  0  0  0
 61 63  1  0  0  0  0
 63 64  1  0  0  0  0
M  CHG  1  63   1
M  END
$$$$
