ZINC00001385
 OpenBabel08292219463D

 25 25  0  0  0  0  0  0  0  0999 V2000
    0.0180   -1.1779   -0.0044 C   0  0  0  0  0  0  0  0  0  0  0  0
    0.0021   -0.0041    0.0020 C   0  0  0  0  0  0  0  0  0  0  0  0
   -0.0179    1.4678    0.0101 C   0  0  0  0  0  0  0  0  0  0  0  0
   -0.7340    1.9612    1.2689 C   0  0  0  0  0  0  0  0  0  0  0  0
   -2.1694    1.4316    1.2798 C   0  0  0  0  0  0  0  0  0  0  0  0
   -2.9094    1.9384    0.0402 C   0  0  0  0  0  0  0  0  0  0  0  0
   -2.1933    1.4450   -1.2186 C   0  0  0  0  0  0  0  0  0  0  0  0
   -0.7579    1.9746   -1.2294 C   0  0  0  0  0  0  0  0  0  0  0  0
    1.3443    1.9704   -0.0002 O   0  0  0  0  0  0  0  0  0  0  0  0
    2.1353    1.6136    1.0293 C   0  0  0  0  0  0  0  0  0  0  0  0
    1.6992    0.9018    1.9123 O   0  0  0  0  0  0  0  0  0  0  0  0
    3.4107    2.0461    1.0805 N   0  0  0  0  0  0  0  0  0  0  0  0
    0.0322   -2.2278   -0.0102 H   0  0  0  0  0  0  0  0  0  0  0  0
   -0.2068    1.6001    2.1520 H   0  0  0  0  0  0  0  0  0  0  0  0
   -0.7488    3.0511    1.2749 H   0  0  0  0  0  0  0  0  0  0  0  0
   -2.6796    1.7831    2.1766 H   0  0  0  0  0  0  0  0  0  0  0  0
   -2.1546    0.3417    1.2738 H   0  0  0  0  0  0  0  0  0  0  0  0
   -2.9242    3.0283    0.0462 H   0  0  0  0  0  0  0  0  0  0  0  0
   -3.9320    1.5612    0.0480 H   0  0  0  0  0  0  0  0  0  0  0  0
   -2.7204    1.8061   -2.1016 H   0  0  0  0  0  0  0  0  0  0  0  0
   -2.1785    0.3551   -1.2245 H   0  0  0  0  0  0  0  0  0  0  0  0
   -0.7727    3.0645   -1.2234 H   0  0  0  0  0  0  0  0  0  0  0  0
   -0.2477    1.6231   -2.1262 H   0  0  0  0  0  0  0  0  0  0  0  0
    3.7589    2.6143    0.3757 H   0  0  0  0  0  0  0  0  0  0  0  0
    3.9806    1.7891    1.8223 H   0  0  0  0  0  0  0  0  0  0  0  0
  1  2  3  0  0  0  0
  1 13  1  0  0  0  0
  2  3  1  0  0  0  0
  3  8  1  0  0  0  0
  3  4  1  0  0  0  0
  3  9  1  0  0  0  0
  4  5  1  0  0  0  0
  4 14  1  0  0  0  0
  4 15  1  0  0  0  0
  5  6  1  0  0  0  0
  5 16  1  0  0  0  0
  5 17  1  0  0  0  0
  6  7  1  0  0  0  0
  6 18  1  0  0  0  0
  6 19  1  0  0  0  0
  7  8  1  0  0  0  0
  7 20  1  0  0  0  0
  7 21  1  0  0  0  0
  8 22  1  0  0  0  0
  8 23  1  0  0  0  0
  9 10  1  0  0  0  0
 10 11  2  0  0  0  0
 10 12  1  0  0  0  0
 12 24  1  0  0  0  0
 12 25  1  0  0  0  0
M  END
$$$$
