ZINC01532805
 OpenBabel08292219463D

 14 13  0  0  0  0  0  0  0  0999 V2000
    2.6961    3.5480   -0.0046 C   0  0  0  0  0  0  0  0  0  0  0  0
    1.2350    3.0943    0.0069 C   0  0  0  0  0  0  0  0  0  0  0  0
    1.1765    1.5884   -0.0006 C   0  0  0  0  0  0  0  0  0  0  0  0
    2.1986    0.9442   -0.0139 O   0  0  0  0  0  0  0  0  0  0  0  0
    2.7554    5.0768    0.0030 C   0  0  0  0  0  0  0  0  0  0  0  0
    4.1201    5.5006   -0.0077 O   0  0  0  0  0  0  0  0  0  0  0  0
    3.2039    3.1603    0.8785 H   0  0  0  0  0  0  0  0  0  0  0  0
    3.1869    3.1698   -0.9014 H   0  0  0  0  0  0  0  0  0  0  0  0
    0.7272    3.4820   -0.8762 H   0  0  0  0  0  0  0  0  0  0  0  0
    0.7441    3.4725    0.9036 H   0  0  0  0  0  0  0  0  0  0  0  0
    2.2476    5.4646   -0.8801 H   0  0  0  0  0  0  0  0  0  0  0  0
    2.2646    5.4550    0.8998 H   0  0  0  0  0  0  0  0  0  0  0  0
    4.2338    6.4609   -0.0037 H   0  0  0  0  0  0  0  0  0  0  0  0
   -0.0110    0.9628    0.0073 O   0  0  0  0  0  1  0  0  0  0  0  0
  1  2  1  0  0  0  0
  1  5  1  0  0  0  0
  1  7  1  0  0  0  0
  1  8  1  0  0  0  0
  2  3  1  0  0  0  0
  2  9  1  0  0  0  0
  2 10  1  0  0  0  0
  3  4  2  0  0  0  0
  3 14  1  0  0  0  0
  5  6  1  0  0  0  0
  5 11  1  0  0  0  0
  5 12  1  0  0  0  0
  6 13  1  0  0  0  0
M  END
$$$$
