ZINC01538857
 OpenBabel08292219463D

 67 70  0  0  0  0  0  0  0  0999 V2000
   -0.0187    1.5258    0.0104 C   0  0  0  0  0  0  0  0  0  0  0  0
    0.0021   -0.0041    0.0020 C   0  0  0  0  0  0  0  0  0  0  0  0
    0.7421   -0.5109    1.2415 C   0  0  0  0  0  0  0  0  0  0  0  0
   -1.4333   -0.5336    0.0129 C   0  0  0  0  0  0  0  0  0  0  0  0
    0.7074   -0.4901   -1.2379 C   0  0  0  0  0  0  0  0  0  0  0  0
    0.0361   -1.2843   -2.1485 C   0  0  0  0  0  0  0  0  0  0  0  0
    0.6831   -1.7301   -3.2859 C   0  0  0  0  0  0  0  0  0  0  0  0
    2.0014   -1.3813   -3.5127 C   0  0  0  0  0  0  0  0  0  0  0  0
    2.6724   -0.5863   -2.6025 C   0  0  0  0  0  0  0  0  0  0  0  0
    2.0241   -0.1370   -1.4673 C   0  0  0  0  0  0  0  0  0  0  0  0
    2.8264   -1.9505   -4.9618 S   0  0  0  0  0  0  0  0  0  0  0  0
    4.2169   -1.9365   -4.6694 O   0  0  0  0  0  0  0  0  0  0  0  0
    2.1477   -3.1268   -5.3801 O   0  0  0  0  0  0  0  0  0  0  0  0
    2.5798   -0.8164   -6.1431 N   0  0  0  0  0  2  0  0  0  0  0  0
    3.1213   -1.0025   -7.4082 C   0  0  0  0  0  0  0  0  0  0  0  0
    2.9242   -0.0487   -8.4114 C   0  0  0  0  0  0  0  0  0  0  0  0
    3.4885   -0.2805   -9.6652 C   0  0  0  0  0  0  0  0  0  0  0  0
    4.1886   -1.3910   -9.8627 N   0  0  0  0  0  0  0  0  0  0  0  0
    4.3546   -2.2729   -8.8879 C   0  0  0  0  0  0  0  0  0  0  0  0
    3.8386   -2.0865   -7.6813 N   0  0  0  0  0  0  0  0  0  0  0  0
    5.1445   -3.5012   -9.1529 C   0  0  0  0  0  0  0  0  0  0  0  0
    5.6700   -3.6854  -10.3558 N   0  0  0  0  0  0  0  0  0  0  0  0
    6.3788   -4.7680  -10.6251 C   0  0  0  0  0  0  0  0  0  0  0  0
    6.5692   -5.7165   -9.6309 C   0  0  0  0  0  0  0  0  0  0  0  0
    6.0051   -5.4919   -8.3836 C   0  0  0  0  0  0  0  0  0  0  0  0
    5.3120   -4.3852   -8.1794 N   0  0  0  0  0  0  0  0  0  0  0  0
    3.3238    0.6161  -10.6697 O   0  0  0  0  0  0  0  0  0  0  0  0
    3.9337    0.3046  -11.9239 C   0  0  0  0  0  0  0  0  0  0  0  0
    3.6412    1.4238  -12.9252 C   0  0  0  0  0  0  0  0  0  0  0  0
    4.2702    2.6302  -12.4883 O   0  0  0  0  0  0  0  0  0  0  0  0
    2.1999    1.0769   -8.1704 O   0  0  0  0  0  0  0  0  0  0  0  0
    2.8591    2.1742   -7.7125 C   0  0  0  0  0  0  0  0  0  0  0  0
    4.2295    2.1271   -7.5099 C   0  0  0  0  0  0  0  0  0  0  0  0
    4.8981    3.2439   -7.0447 C   0  0  0  0  0  0  0  0  0  0  0  0
    4.2029    4.4094   -6.7801 C   0  0  0  0  0  0  0  0  0  0  0  0
    2.8359    4.4632   -6.9795 C   0  0  0  0  0  0  0  0  0  0  0  0
    2.1602    3.3494   -7.4515 C   0  0  0  0  0  0  0  0  0  0  0  0
    0.8166    3.4025   -7.6540 O   0  0  0  0  0  0  0  0  0  0  0  0
    0.1654    4.6412   -7.3649 C   0  0  0  0  0  0  0  0  0  0  0  0
    1.0039    1.9031    0.0027 H   0  0  0  0  0  0  0  0  0  0  0  0
   -0.5459    1.8868   -0.8726 H   0  0  0  0  0  0  0  0  0  0  0  0
   -0.5289    1.8773    0.9072 H   0  0  0  0  0  0  0  0  0  0  0  0
    0.2319   -0.1594    2.1383 H   0  0  0  0  0  0  0  0  0  0  0  0
    0.7568   -1.6008    1.2356 H   0  0  0  0  0  0  0  0  0  0  0  0
    1.7647   -0.1336    1.2338 H   0  0  0  0  0  0  0  0  0  0  0  0
   -1.9605   -0.1726   -0.8702 H   0  0  0  0  0  0  0  0  0  0  0  0
   -1.4185   -1.6235    0.0069 H   0  0  0  0  0  0  0  0  0  0  0  0
   -1.9435   -0.1821    0.9097 H   0  0  0  0  0  0  0  0  0  0  0  0
   -0.9938   -1.5568   -1.9713 H   0  0  0  0  0  0  0  0  0  0  0  0
    0.1588   -2.3512   -3.9970 H   0  0  0  0  0  0  0  0  0  0  0  0
    3.7024   -0.3141   -2.7796 H   0  0  0  0  0  0  0  0  0  0  0  0
    2.5473    0.4872   -0.7580 H   0  0  0  0  0  0  0  0  0  0  0  0
    6.8041   -4.9126  -11.6072 H   0  0  0  0  0  0  0  0  0  0  0  0
    7.1437   -6.6105   -9.8238 H   0  0  0  0  0  0  0  0  0  0  0  0
    6.1342   -6.2107   -7.5879 H   0  0  0  0  0  0  0  0  0  0  0  0
    5.0112    0.2091  -11.7902 H   0  0  0  0  0  0  0  0  0  0  0  0
    3.5296   -0.6350  -12.3009 H   0  0  0  0  0  0  0  0  0  0  0  0
    4.0297    1.1456  -13.9049 H   0  0  0  0  0  0  0  0  0  0  0  0
    2.5644    1.5792  -12.9922 H   0  0  0  0  0  0  0  0  0  0  0  0
    4.1268    3.3840  -13.0768 H   0  0  0  0  0  0  0  0  0  0  0  0
    4.7748    1.2177   -7.7151 H   0  0  0  0  0  0  0  0  0  0  0  0
    5.9659    3.2059   -6.8872 H   0  0  0  0  0  0  0  0  0  0  0  0
    4.7289    5.2797   -6.4164 H   0  0  0  0  0  0  0  0  0  0  0  0
    2.2954    5.3748   -6.7716 H   0  0  0  0  0  0  0  0  0  0  0  0
    0.5872    5.4280   -7.9903 H   0  0  0  0  0  0  0  0  0  0  0  0
   -0.9012    4.5474   -7.5691 H   0  0  0  0  0  0  0  0  0  0  0  0
    0.3136    4.8932   -6.3148 H   0  0  0  0  0  0  0  0  0  0  0  0
  1  2  1  0  0  0  0
  1 40  1  0  0  0  0
  1 41  1  0  0  0  0
  1 42  1  0  0  0  0
  2  3  1  0  0  0  0
  2  4  1  0  0  0  0
  2  5  1  0  0  0  0
  3 43  1  0  0  0  0
  3 44  1  0  0  0  0
  3 45  1  0  0  0  0
  4 46  1  0  0  0  0
  4 47  1  0  0  0  0
  4 48  1  0  0  0  0
  5 10  2  0  0  0  0
  5  6  1  0  0  0  0
  6  7  2  0  0  0  0
  6 49  1  0  0  0  0
  7  8  1  0  0  0  0
  7 50  1  0  0  0  0
  8  9  2  0  0  0  0
  8 11  1  0  0  0  0
  9 10  1  0  0  0  0
  9 51  1  0  0  0  0
 10 52  1  0  0  0  0
 11 12  2  0  0  0  0
 11 13  2  0  0  0  0
 11 14  1  0  0  0  0
 14 15  1  0  0  0  0
 15 20  2  0  0  0  0
 15 16  1  0  0  0  0
 16 17  2  0  0  0  0
 16 31  1  0  0  0  0
 17 18  1  0  0  0  0
 17 27  1  0  0  0  0
 18 19  2  0  0  0  0
 19 20  1  0  0  0  0
 19 21  1  0  0  0  0
 21 26  2  0  0  0  0
 21 22  1  0  0  0  0
 22 23  2  0  0  0  0
 23 24  1  0  0  0  0
 23 53  1  0  0  0  0
 24 25  2  0  0  0  0
 24 54  1  0  0  0  0
 25 26  1  0  0  0  0
 25 55  1  0  0  0  0
 27 28  1  0  0  0  0
 28 29  1  0  0  0  0
 28 56  1  0  0  0  0
 28 57  1  0  0  0  0
 29 30  1  0  0  0  0
 29 58  1  0  0  0  0
 29 59  1  0  0  0  0
 30 60  1  0  0  0  0
 31 32  1  0  0  0  0
 32 37  2  0  0  0  0
 32 33  1  0  0  0  0
 33 34  2  0  0  0  0
 33 61  1  0  0  0  0
 34 35  1  0  0  0  0
 34 62  1  0  0  0  0
 35 36  2  0  0  0  0
 35 63  1  0  0  0  0
 36 37  1  0  0  0  0
 36 64  1  0  0  0  0
 37 38  1  0  0  0  0
 38 39  1  0  0  0  0
 39 65  1  0  0  0  0
 39 66  1  0  0  0  0
 39 67  1  0  0  0  0
M  END
$$$$
