ZINC03812863
 OpenBabel08292219463D

 60 61  0  0  1  0  0  0  0  0999 V2000
   -0.0167    1.3781    0.0096 C   0  0  0  0  0  0  0  0  0  0  0  0
    1.1709    2.0855    0.0021 C   0  0  0  0  0  0  0  0  0  0  0  0
    2.3773    1.4107   -0.0130 C   0  0  0  0  0  0  0  0  0  0  0  0
    2.3960    0.0285   -0.0201 C   0  0  0  0  0  0  0  0  0  0  0  0
    1.2084   -0.6789   -0.0117 C   0  0  0  0  0  0  0  0  0  0  0  0
    0.0021   -0.0041    0.0020 C   0  0  0  0  0  0  0  0  0  0  0  0
    3.7112   -0.7071   -0.0376 C   0  0  0  0  0  0  0  0  0  0  0  0
    4.1714   -0.9633    1.3989 C   0  0  0  0  0  0  0  0  0  0  0  0
    5.5066   -1.7102    1.3812 C   0  0  1  0  0  0  0  0  0  0  0  0
    6.2284   -1.1499    0.7869 H   0  0  0  0  0  0  0  0  0  0  0  0
    6.0202   -1.8544    2.7906 C   0  0  0  0  0  0  0  0  0  0  0  0
    5.7155   -2.8312    3.4535 O   0  0  0  0  0  0  0  0  0  0  0  0
    6.7405   -0.9942    3.2679 O   0  0  0  0  0  1  0  0  0  0  0  0
    5.3150   -3.0418    0.7912 N   0  3  0  0  0  0  0  0  0  0  0  0
    6.6156   -3.7127    0.6641 C   0  0  1  0  0  0  0  0  0  0  0  0
    7.1096   -3.7348    1.6355 H   0  0  0  0  0  0  0  0  0  0  0  0
    6.4045   -5.1442    0.1667 C   0  0  0  0  0  0  0  0  0  0  0  0
    5.6383   -5.9433    1.2228 C   0  0  0  0  0  0  0  0  0  0  0  0
    5.4273   -7.3747    0.7254 C   0  0  0  0  0  0  0  0  0  0  0  0
    4.6611   -8.1738    1.7815 C   0  0  0  0  0  0  0  0  0  0  0  0
    4.4584   -9.5481    1.3040 N   0  3  0  0  0  0  0  0  0  0  0  0
    7.4748   -2.9608   -0.3195 C   0  0  0  0  0  0  0  0  0  0  0  0
    7.0459   -1.9640   -0.8612 O   0  0  0  0  0  0  0  0  0  0  0  0
    8.7198   -3.3959   -0.5971 N   0  0  0  0  0  0  0  0  0  0  0  0
    9.3614   -4.5905   -0.0185 C   0  0  0  0  0  0  0  0  0  0  0  0
   10.8822   -4.3203   -0.1369 C   0  0  0  0  0  0  0  0  0  0  0  0
   10.9632   -3.5887   -1.5027 C   0  0  0  0  0  0  0  0  0  0  0  0
    9.6606   -2.7615   -1.5319 C   0  0  1  0  0  0  0  0  0  0  0  0
    9.8658   -1.7391   -1.2145 H   0  0  0  0  0  0  0  0  0  0  0  0
    9.0805   -2.7628   -2.9228 C   0  0  0  0  0  0  0  0  0  0  0  0
    9.6205   -2.1230   -3.8091 O   0  0  0  0  0  0  0  0  0  0  0  0
    8.0713   -3.4037   -3.1617 O   0  0  0  0  0  1  0  0  0  0  0  0
   -0.9591    1.9053    0.0259 H   0  0  0  0  0  0  0  0  0  0  0  0
    1.1563    3.1654    0.0076 H   0  0  0  0  0  0  0  0  0  0  0  0
    3.3051    1.9634   -0.0196 H   0  0  0  0  0  0  0  0  0  0  0  0
    1.2231   -1.7588   -0.0176 H   0  0  0  0  0  0  0  0  0  0  0  0
   -0.9258   -0.5567    0.0082 H   0  0  0  0  0  0  0  0  0  0  0  0
    3.5884   -1.6586   -0.5549 H   0  0  0  0  0  0  0  0  0  0  0  0
    4.4573   -0.1052   -0.5563 H   0  0  0  0  0  0  0  0  0  0  0  0
    4.2941   -0.0118    1.9163 H   0  0  0  0  0  0  0  0  0  0  0  0
    3.4252   -1.5652    1.9176 H   0  0  0  0  0  0  0  0  0  0  0  0
    4.7108   -3.5892    1.3856 H   0  0  0  0  0  0  0  0  0  0  0  0
    5.8324   -5.1259   -0.7609 H   0  0  0  0  0  0  0  0  0  0  0  0
    7.3721   -5.6130   -0.0124 H   0  0  0  0  0  0  0  0  0  0  0  0
    6.2104   -5.9616    2.1504 H   0  0  0  0  0  0  0  0  0  0  0  0
    4.6707   -5.4745    1.4019 H   0  0  0  0  0  0  0  0  0  0  0  0
    4.8551   -7.3564   -0.2022 H   0  0  0  0  0  0  0  0  0  0  0  0
    6.3949   -7.8435    0.5463 H   0  0  0  0  0  0  0  0  0  0  0  0
    5.2332   -8.1921    2.7091 H   0  0  0  0  0  0  0  0  0  0  0  0
    3.6935   -7.7050    1.9606 H   0  0  0  0  0  0  0  0  0  0  0  0
    3.9288   -9.5312    0.4453 H   0  0  0  0  0  0  0  0  0  0  0  0
    5.3541   -9.9821    1.1382 H   0  0  0  0  0  0  0  0  0  0  0  0
    9.0767   -4.7050    1.0274 H   0  0  0  0  0  0  0  0  0  0  0  0
    9.0888   -5.4801   -0.5864 H   0  0  0  0  0  0  0  0  0  0  0  0
   11.2288   -3.6772    0.6720 H   0  0  0  0  0  0  0  0  0  0  0  0
   11.4442   -5.2540   -0.1598 H   0  0  0  0  0  0  0  0  0  0  0  0
   11.8369   -2.9380   -1.5404 H   0  0  0  0  0  0  0  0  0  0  0  0
   10.9791   -4.3054   -2.3238 H   0  0  0  0  0  0  0  0  0  0  0  0
    3.9531  -10.0751    2.0004 H   0  0  0  0  0  0  0  0  0  0  0  0
    4.8943   -2.9480   -0.1211 H   0  0  0  0  0  0  0  0  0  0  0  0
  1  6  2  0  0  0  0
  1  2  1  0  0  0  0
  1 33  1  0  0  0  0
  2  3  2  0  0  0  0
  2 34  1  0  0  0  0
  3  4  1  0  0  0  0
  3 35  1  0  0  0  0
  4  5  2  0  0  0  0
  4  7  1  0  0  0  0
  5  6  1  0  0  0  0
  5 36  1  0  0  0  0
  6 37  1  0  0  0  0
  7  8  1  0  0  0  0
  7 38  1  0  0  0  0
  7 39  1  0  0  0  0
  8  9  1  0  0  0  0
  8 40  1  0  0  0  0
  8 41  1  0  0  0  0
  9 10  1  6  0  0  0
  9 11  1  0  0  0  0
  9 14  1  0  0  0  0
 11 12  2  0  0  0  0
 11 13  1  0  0  0  0
 14 15  1  0  0  0  0
 14 42  1  0  0  0  0
 14 60  1  0  0  0  0
 15 16  1  1  0  0  0
 15 17  1  0  0  0  0
 15 22  1  0  0  0  0
 17 18  1  0  0  0  0
 17 43  1  0  0  0  0
 17 44  1  0  0  0  0
 18 19  1  0  0  0  0
 18 45  1  0  0  0  0
 18 46  1  0  0  0  0
 19 20  1  0  0  0  0
 19 47  1  0  0  0  0
 19 48  1  0  0  0  0
 20 21  1  0  0  0  0
 20 49  1  0  0  0  0
 20 50  1  0  0  0  0
 21 51  1  0  0  0  0
 21 52  1  0  0  0  0
 21 59  1  0  0  0  0
 22 23  2  0  0  0  0
 22 24  1  0  0  0  0
 24 28  1  0  0  0  0
 24 25  1  0  0  0  0
 25 26  1  0  0  0  0
 25 53  1  0  0  0  0
 25 54  1  0  0  0  0
 26 27  1  0  0  0  0
 26 55  1  0  0  0  0
 26 56  1  0  0  0  0
 27 28  1  0  0  0  0
 27 57  1  0  0  0  0
 27 58  1  0  0  0  0
 28 29  1  1  0  0  0
 28 30  1  0  0  0  0
 30 31  2  0  0  0  0
 30 32  1  0  0  0  0
M  CHG  2  14   1  21   1
M  END
$$$$
