ZINC03831405
 OpenBabel08292219463D

 49 52  0  0  1  0  0  0  0  0999 V2000
   -0.1764    0.8014   -3.0424 C   0  0  0  0  0  0  0  0  0  0  0  0
   -0.1372   -0.5890   -2.7148 O   0  0  0  0  0  0  0  0  0  0  0  0
   -1.2504   -1.1200   -2.1442 C   0  0  0  0  0  0  0  0  0  0  0  0
   -2.3634   -0.3060   -1.9120 C   0  0  0  0  0  0  0  0  0  0  0  0
   -3.4917   -0.8077   -1.3428 C   0  0  0  0  0  0  0  0  0  0  0  0
   -3.5476   -2.1654   -0.9795 C   0  0  0  0  0  0  0  0  0  0  0  0
   -2.4194   -2.9905   -1.2148 C   0  0  0  0  0  0  0  0  0  0  0  0
   -1.2712   -2.4441   -1.8092 C   0  0  0  0  0  0  0  0  0  0  0  0
   -2.4792   -4.3486   -0.8498 C   0  0  0  0  0  0  0  0  0  0  0  0
   -3.6310   -4.8130   -0.2809 C   0  0  0  0  0  0  0  0  0  0  0  0
   -4.7036   -3.9480   -0.0774 C   0  0  0  0  0  0  0  0  0  0  0  0
   -4.6447   -2.6836   -0.4189 N   0  0  0  0  0  0  0  0  0  0  0  0
   -1.3053   -5.2650   -1.0808 C   0  0  1  0  0  0  0  0  0  0  0  0
   -0.7977   -4.9800   -2.0023 H   0  0  0  0  0  0  0  0  0  0  0  0
   -0.3314   -5.1520    0.0938 C   0  0  1  0  0  0  0  0  0  0  0  0
   -0.1138   -4.1009    0.2834 H   0  0  0  0  0  0  0  0  0  0  0  0
   -0.9656   -5.7723    1.3408 C   0  0  0  0  0  0  0  0  0  0  0  0
   -0.0775   -6.9255    1.8263 C   0  0  2  0  0  0  0  0  0  0  0  0
   -0.5128   -7.3909    2.7106 H   0  0  0  0  0  0  0  0  0  0  0  0
    1.3122   -6.3622    2.1515 C   0  0  0  0  0  0  0  0  0  0  0  0
    1.8860   -5.7069    0.8932 C   0  0  0  0  0  0  0  0  0  0  0  0
    0.9114   -5.8538   -0.2361 N   0  3  1  0  0  0  0  0  0  0  0  0
    0.6447   -7.2635   -0.5315 C   0  0  0  0  0  0  0  0  0  0  0  0
    0.0464   -7.9514    0.6921 C   0  0  2  0  0  0  0  0  0  0  0  0
    0.6964   -8.7677    1.0073 H   0  0  0  0  0  0  0  0  0  0  0  0
   -1.3178   -8.4922    0.3490 C   0  0  0  0  0  0  0  0  0  0  0  0
   -1.4890   -9.7803    0.1830 C   0  0  0  0  0  0  0  0  0  0  0  0
   -1.7673   -6.6129   -1.1886 O   0  0  0  0  0  0  0  0  0  0  0  0
    0.7728    1.0962   -3.4899 H   0  0  0  0  0  0  0  0  0  0  0  0
   -0.9845    0.9852   -3.7504 H   0  0  0  0  0  0  0  0  0  0  0  0
   -0.3474    1.3834   -2.1368 H   0  0  0  0  0  0  0  0  0  0  0  0
   -2.3262    0.7373   -2.1886 H   0  0  0  0  0  0  0  0  0  0  0  0
   -4.3426   -0.1655   -1.1699 H   0  0  0  0  0  0  0  0  0  0  0  0
   -0.4082   -3.0658   -1.9968 H   0  0  0  0  0  0  0  0  0  0  0  0
   -3.7101   -5.8500    0.0105 H   0  0  0  0  0  0  0  0  0  0  0  0
   -5.6080   -4.3290    0.3735 H   0  0  0  0  0  0  0  0  0  0  0  0
   -1.0453   -5.0181    2.1237 H   0  0  0  0  0  0  0  0  0  0  0  0
   -1.9570   -6.1531    1.0954 H   0  0  0  0  0  0  0  0  0  0  0  0
    1.2288   -5.6193    2.9447 H   0  0  0  0  0  0  0  0  0  0  0  0
    1.9680   -7.1712    2.4735 H   0  0  0  0  0  0  0  0  0  0  0  0
    2.0811   -4.6530    1.0912 H   0  0  0  0  0  0  0  0  0  0  0  0
    2.8189   -6.2008    0.6215 H   0  0  0  0  0  0  0  0  0  0  0  0
   -0.0547   -7.3324   -1.3646 H   0  0  0  0  0  0  0  0  0  0  0  0
    1.5771   -7.7589   -0.8023 H   0  0  0  0  0  0  0  0  0  0  0  0
   -2.1542   -7.8178    0.2399 H   0  0  0  0  0  0  0  0  0  0  0  0
   -0.6525  -10.4547    0.2920 H   0  0  0  0  0  0  0  0  0  0  0  0
   -2.4666  -10.1678   -0.0629 H   0  0  0  0  0  0  0  0  0  0  0  0
   -2.5945   -6.7840   -0.7179 H   0  0  0  0  0  0  0  0  0  0  0  0
    1.3069   -5.4312   -1.0625 H   0  0  0  0  0  0  0  0  0  0  0  0
  1  2  1  0  0  0  0
  1 29  1  0  0  0  0
  1 30  1  0  0  0  0
  1 31  1  0  0  0  0
  2  3  1  0  0  0  0
  3  8  2  0  0  0  0
  3  4  1  0  0  0  0
  4  5  2  0  0  0  0
  4 32  1  0  0  0  0
  5  6  1  0  0  0  0
  5 33  1  0  0  0  0
  6 12  2  0  0  0  0
  6  7  1  0  0  0  0
  7  8  1  0  0  0  0
  7  9  2  0  0  0  0
  8 34  1  0  0  0  0
  9 10  1  0  0  0  0
  9 13  1  0  0  0  0
 10 11  2  0  0  0  0
 10 35  1  0  0  0  0
 11 12  1  0  0  0  0
 11 36  1  0  0  0  0
 13 14  1  6  0  0  0
 13 15  1  0  0  0  0
 13 28  1  0  0  0  0
 15 16  1  1  0  0  0
 15 22  1  0  0  0  0
 15 17  1  0  0  0  0
 17 18  1  0  0  0  0
 17 37  1  0  0  0  0
 17 38  1  0  0  0  0
 18 19  1  1  0  0  0
 18 24  1  0  0  0  0
 18 20  1  0  0  0  0
 20 21  1  0  0  0  0
 20 39  1  0  0  0  0
 20 40  1  0  0  0  0
 21 22  1  0  0  0  0
 21 41  1  0  0  0  0
 21 42  1  0  0  0  0
 22 23  1  0  0  0  0
 22 49  1  6  0  0  0
 23 24  1  0  0  0  0
 23 43  1  0  0  0  0
 23 44  1  0  0  0  0
 24 25  1  1  0  0  0
 24 26  1  0  0  0  0
 26 27  2  0  0  0  0
 26 45  1  0  0  0  0
 27 46  1  0  0  0  0
 27 47  1  0  0  0  0
 28 48  1  0  0  0  0
M  CHG  1  22   1
M  END
$$$$
