ZINC01550766
 OpenBabel08292219463D

 50 52  0  0  0  0  0  0  0  0999 V2000
   -6.6733    6.4219   -1.1546 C   0  0  0  0  0  0  0  0  0  0  0  0
   -5.5954    6.6631   -1.9886 C   0  0  0  0  0  0  0  0  0  0  0  0
   -4.4956    5.8323   -1.9577 C   0  0  0  0  0  0  0  0  0  0  0  0
   -4.4710    4.7431   -1.0802 C   0  0  0  0  0  0  0  0  0  0  0  0
   -5.5669    4.5028   -0.2446 C   0  0  0  0  0  0  0  0  0  0  0  0
   -6.6568    5.3464   -0.2835 C   0  0  0  0  0  0  0  0  0  0  0  0
   -3.3019    3.8519   -1.0407 C   0  0  0  0  0  0  0  0  0  0  0  0
   -2.5401    3.7823    0.0786 C   0  0  0  0  0  0  0  0  0  0  0  0
   -1.4478    2.7880    0.1696 C   0  0  0  0  0  0  0  0  0  0  0  0
   -1.7396    1.4235    0.1584 C   0  0  0  0  0  0  0  0  0  0  0  0
   -0.7171    0.5017    0.2483 C   0  0  0  0  0  0  0  0  0  0  0  0
    0.5962    0.9276    0.3394 C   0  0  0  0  0  0  0  0  0  0  0  0
    0.8925    2.2790    0.3467 C   0  0  0  0  0  0  0  0  0  0  0  0
   -0.1212    3.2110    0.2621 C   0  0  0  0  0  0  0  0  0  0  0  0
   -2.8008    4.7002    1.2090 C   0  0  0  0  0  0  0  0  0  0  0  0
   -2.6046    6.0737    1.0548 C   0  0  0  0  0  0  0  0  0  0  0  0
   -2.8536    6.9263    2.1088 C   0  0  0  0  0  0  0  0  0  0  0  0
   -3.2887    6.4195    3.3264 C   0  0  0  0  0  0  0  0  0  0  0  0
   -3.4796    5.0531    3.4856 C   0  0  0  0  0  0  0  0  0  0  0  0
   -3.2382    4.1946    2.4345 C   0  0  0  0  0  0  0  0  0  0  0  0
   -3.5285    7.2625    4.3645 O   0  0  0  0  0  0  0  0  0  0  0  0
   -3.3118    8.6557    4.1321 C   0  0  0  0  0  0  0  0  0  0  0  0
   -3.6317    9.4410    5.4057 C   0  0  0  0  0  0  0  0  0  0  0  0
   -2.7059    9.0805    6.4328 O   0  0  0  0  0  0  0  0  0  0  0  0
   -2.9505    3.0160   -2.2444 C   0  0  0  0  0  0  0  0  0  0  0  0
   -2.0823    3.8373   -3.1998 C   0  0  0  0  0  0  0  0  0  0  0  0
   -1.5179    2.7870   -4.5522 Cl  0  0  0  0  0  0  0  0  0  0  0  0
   -7.5321    7.0762   -1.1838 H   0  0  0  0  0  0  0  0  0  0  0  0
   -5.6161    7.5043   -2.6657 H   0  0  0  0  0  0  0  0  0  0  0  0
   -3.6554    6.0216   -2.6094 H   0  0  0  0  0  0  0  0  0  0  0  0
   -5.5575    3.6611    0.4322 H   0  0  0  0  0  0  0  0  0  0  0  0
   -7.5019    5.1646    0.3638 H   0  0  0  0  0  0  0  0  0  0  0  0
   -2.7640    1.0897    0.0831 H   0  0  0  0  0  0  0  0  0  0  0  0
   -0.9418   -0.5546    0.2431 H   0  0  0  0  0  0  0  0  0  0  0  0
    1.3934    0.2020    0.4055 H   0  0  0  0  0  0  0  0  0  0  0  0
    1.9196    2.6051    0.4184 H   0  0  0  0  0  0  0  0  0  0  0  0
    0.1114    4.2656    0.2672 H   0  0  0  0  0  0  0  0  0  0  0  0
   -2.2624    6.4682    0.1094 H   0  0  0  0  0  0  0  0  0  0  0  0
   -2.7063    7.9895    1.9889 H   0  0  0  0  0  0  0  0  0  0  0  0
   -3.8180    4.6627    4.4340 H   0  0  0  0  0  0  0  0  0  0  0  0
   -3.3876    3.1323    2.5588 H   0  0  0  0  0  0  0  0  0  0  0  0
   -2.2703    8.8203    3.8558 H   0  0  0  0  0  0  0  0  0  0  0  0
   -3.9600    8.9945    3.3239 H   0  0  0  0  0  0  0  0  0  0  0  0
   -3.5523   10.5091    5.2035 H   0  0  0  0  0  0  0  0  0  0  0  0
   -4.6452    9.2073    5.7317 H   0  0  0  0  0  0  0  0  0  0  0  0
   -2.8494    9.5410    7.2709 H   0  0  0  0  0  0  0  0  0  0  0  0
   -2.4011    2.1308   -1.9242 H   0  0  0  0  0  0  0  0  0  0  0  0
   -3.8644    2.7117   -2.7547 H   0  0  0  0  0  0  0  0  0  0  0  0
   -2.6670    4.6646   -3.6019 H   0  0  0  0  0  0  0  0  0  0  0  0
   -1.2202    4.2299   -2.6606 H   0  0  0  0  0  0  0  0  0  0  0  0
  1  6  2  0  0  0  0
  1  2  1  0  0  0  0
  1 28  1  0  0  0  0
  2  3  2  0  0  0  0
  2 29  1  0  0  0  0
  3  4  1  0  0  0  0
  3 30  1  0  0  0  0
  4  5  2  0  0  0  0
  4  7  1  0  0  0  0
  5  6  1  0  0  0  0
  5 31  1  0  0  0  0
  6 32  1  0  0  0  0
  7  8  2  0  0  0  0
  7 25  1  0  0  0  0
  8  9  1  0  0  0  0
  8 15  1  0  0  0  0
  9 14  2  0  0  0  0
  9 10  1  0  0  0  0
 10 11  2  0  0  0  0
 10 33  1  0  0  0  0
 11 12  1  0  0  0  0
 11 34  1  0  0  0  0
 12 13  2  0  0  0  0
 12 35  1  0  0  0  0
 13 14  1  0  0  0  0
 13 36  1  0  0  0  0
 14 37  1  0  0  0  0
 15 20  2  0  0  0  0
 15 16  1  0  0  0  0
 16 17  2  0  0  0  0
 16 38  1  0  0  0  0
 17 18  1  0  0  0  0
 17 39  1  0  0  0  0
 18 19  2  0  0  0  0
 18 21  1  0  0  0  0
 19 20  1  0  0  0  0
 19 40  1  0  0  0  0
 20 41  1  0  0  0  0
 21 22  1  0  0  0  0
 22 23  1  0  0  0  0
 22 42  1  0  0  0  0
 22 43  1  0  0  0  0
 23 24  1  0  0  0  0
 23 44  1  0  0  0  0
 23 45  1  0  0  0  0
 24 46  1  0  0  0  0
 25 26  1  0  0  0  0
 25 47  1  0  0  0  0
 25 48  1  0  0  0  0
 26 27  1  0  0  0  0
 26 49  1  0  0  0  0
 26 50  1  0  0  0  0
M  END
$$$$
