ZINC03977978
 OpenBabel08292219463D

 67 71  0  0  1  0  0  0  0  0999 V2000
   -1.8914    1.0539   -4.4243 C   0  0  0  0  0  0  0  0  0  0  0  0
   -1.8984   -0.4349   -4.1907 C   0  0  0  0  0  0  0  0  0  0  0  0
   -1.6065   -1.1886   -5.0888 O   0  0  0  0  0  0  0  0  0  0  0  0
   -2.2289   -0.9235   -2.9850 O   0  0  0  0  0  0  0  0  0  0  0  0
   -2.2144   -2.3445   -2.8347 C   0  0  0  0  0  0  0  0  0  0  0  0
   -2.6092   -2.7046   -1.4256 C   0  0  0  0  0  0  0  0  0  0  0  0
   -2.7869   -1.8346   -0.6072 O   0  0  0  0  0  0  0  0  0  0  0  0
   -2.7824   -4.1505   -1.0378 C   0  0  1  0  0  0  0  0  0  0  0  0
   -2.5103   -4.3834    0.4780 C   0  0  1  0  0  0  0  0  0  0  0  0
   -2.2866   -3.4576    1.0081 H   0  0  0  0  0  0  0  0  0  0  0  0
   -3.7720   -5.0950    1.0384 C   0  0  0  0  0  0  0  0  0  0  0  0
   -4.3803   -5.7547   -0.2042 C   0  0  2  0  0  0  0  0  0  0  0  0
   -3.8080   -6.6395   -0.4830 H   0  0  0  0  0  0  0  0  0  0  0  0
   -4.2101   -4.6310   -1.2668 C   0  0  2  0  0  0  0  0  0  0  0  0
   -4.5073   -5.2505   -2.6190 C   0  0  0  0  0  0  0  0  0  0  0  0
   -5.9897   -5.6566   -2.6162 C   0  0  1  0  0  0  0  0  0  0  0  0
   -6.2288   -6.1366   -3.5651 H   0  0  0  0  0  0  0  0  0  0  0  0
   -6.3064   -6.6203   -1.4768 C   0  0  1  0  0  0  0  0  0  0  0  0
   -5.8584   -6.0891   -0.1129 C   0  0  1  0  0  0  0  0  0  0  0  0
   -6.4271   -5.1857    0.1076 H   0  0  0  0  0  0  0  0  0  0  0  0
   -6.0852   -7.1424    0.9736 C   0  0  0  0  0  0  0  0  0  0  0  0
   -7.5815   -7.4487    1.0919 C   0  0  1  0  0  0  0  0  0  0  0  0
   -8.1131   -6.5603    1.4331 H   0  0  0  0  0  0  0  0  0  0  0  0
   -8.0902   -7.8551   -0.2786 C   0  0  0  0  0  0  0  0  0  0  0  0
   -8.7742   -8.9841   -0.4017 C   0  0  0  0  0  0  0  0  0  0  0  0
   -9.2654   -9.4211   -1.7178 C   0  0  0  0  0  0  0  0  0  0  0  0
   -9.9253  -10.4374   -1.8296 O   0  0  0  0  0  0  0  0  0  0  0  0
   -8.9409   -8.6005   -2.8968 C   0  0  0  0  0  0  0  0  0  0  0  0
   -8.2627   -7.4734   -2.7493 C   0  0  0  0  0  0  0  0  0  0  0  0
   -7.8142   -6.8888   -1.4439 C   0  0  2  0  0  0  0  0  0  0  0  0
   -8.5208   -5.5515   -1.2134 C   0  0  0  0  0  0  0  0  0  0  0  0
   -7.7792   -8.4949    1.9993 F   0  0  0  0  0  0  0  0  0  0  0  0
   -5.6289   -7.8254   -1.6913 F   0  0  0  0  0  0  0  0  0  0  0  0
   -6.7940   -4.4844   -2.4710 O   0  0  0  0  0  0  0  0  0  0  0  0
   -5.1910   -3.4896   -0.9917 C   0  0  0  0  0  0  0  0  0  0  0  0
   -1.4097   -5.3150    0.5101 O   0  0  0  0  0  0  0  0  0  0  0  0
   -0.7566   -5.1668   -0.7679 C   0  0  0  0  0  0  0  0  0  0  0  0
   -1.8526   -5.0056   -1.7300 O   0  0  0  0  0  0  0  0  0  0  0  0
    0.0565   -6.4195   -1.1000 C   0  0  0  0  0  0  0  0  0  0  0  0
    0.1436   -3.9296   -0.7668 C   0  0  0  0  0  0  0  0  0  0  0  0
   -1.6003    1.2587   -5.4546 H   0  0  0  0  0  0  0  0  0  0  0  0
   -2.8884    1.4550   -4.2419 H   0  0  0  0  0  0  0  0  0  0  0  0
   -1.1805    1.5249   -3.7454 H   0  0  0  0  0  0  0  0  0  0  0  0
   -2.9201   -2.7911   -3.5352 H   0  0  0  0  0  0  0  0  0  0  0  0
   -1.2122   -2.7213   -3.0387 H   0  0  0  0  0  0  0  0  0  0  0  0
   -3.4939   -5.8473    1.7766 H   0  0  0  0  0  0  0  0  0  0  0  0
   -4.4641   -4.3704    1.4675 H   0  0  0  0  0  0  0  0  0  0  0  0
   -4.3231   -4.5229   -3.4093 H   0  0  0  0  0  0  0  0  0  0  0  0
   -3.8817   -6.1303   -2.7699 H   0  0  0  0  0  0  0  0  0  0  0  0
   -5.5480   -8.0542    0.7126 H   0  0  0  0  0  0  0  0  0  0  0  0
   -5.7158   -6.7651    1.9272 H   0  0  0  0  0  0  0  0  0  0  0  0
   -8.9721   -9.5881    0.4714 H   0  0  0  0  0  0  0  0  0  0  0  0
   -9.2559   -8.9176   -3.8800 H   0  0  0  0  0  0  0  0  0  0  0  0
   -8.0360   -6.8988   -3.6352 H   0  0  0  0  0  0  0  0  0  0  0  0
   -8.5632   -4.9966   -2.1506 H   0  0  0  0  0  0  0  0  0  0  0  0
   -9.5332   -5.7329   -0.8524 H   0  0  0  0  0  0  0  0  0  0  0  0
   -7.9694   -4.9721   -0.4728 H   0  0  0  0  0  0  0  0  0  0  0  0
   -6.6735   -3.8348   -3.1771 H   0  0  0  0  0  0  0  0  0  0  0  0
   -5.1992   -2.8051   -1.8400 H   0  0  0  0  0  0  0  0  0  0  0  0
   -6.1910   -3.8975   -0.8444 H   0  0  0  0  0  0  0  0  0  0  0  0
   -4.8817   -2.9529   -0.0948 H   0  0  0  0  0  0  0  0  0  0  0  0
   -0.6025   -7.2876   -1.1131 H   0  0  0  0  0  0  0  0  0  0  0  0
    0.5218   -6.3018   -2.0787 H   0  0  0  0  0  0  0  0  0  0  0  0
    0.8296   -6.5617   -0.3449 H   0  0  0  0  0  0  0  0  0  0  0  0
    0.9665   -4.0797   -0.0680 H   0  0  0  0  0  0  0  0  0  0  0  0
    0.5423   -3.7695   -1.7686 H   0  0  0  0  0  0  0  0  0  0  0  0
   -0.4367   -3.0583   -0.4631 H   0  0  0  0  0  0  0  0  0  0  0  0
  1  2  1  0  0  0  0
  1 41  1  0  0  0  0
  1 42  1  0  0  0  0
  1 43  1  0  0  0  0
  2  3  2  0  0  0  0
  2  4  1  0  0  0  0
  4  5  1  0  0  0  0
  5  6  1  0  0  0  0
  5 44  1  0  0  0  0
  5 45  1  0  0  0  0
  6  7  2  0  0  0  0
  8  6  1  6  0  0  0
  8 14  1  0  0  0  0
  8 38  1  0  0  0  0
  8  9  1  0  0  0  0
  9 10  1  1  0  0  0
  9 11  1  0  0  0  0
  9 36  1  0  0  0  0
 11 12  1  0  0  0  0
 11 46  1  0  0  0  0
 11 47  1  0  0  0  0
 12 13  1  6  0  0  0
 12 19  1  0  0  0  0
 12 14  1  0  0  0  0
 14 15  1  0  0  0  0
 14 35  1  1  0  0  0
 15 16  1  0  0  0  0
 15 48  1  0  0  0  0
 15 49  1  0  0  0  0
 16 17  1  6  0  0  0
 16 18  1  0  0  0  0
 16 34  1  0  0  0  0
 18 30  1  0  0  0  0
 18 19  1  0  0  0  0
 18 33  1  6  0  0  0
 19 20  1  1  0  0  0
 19 21  1  0  0  0  0
 21 22  1  0  0  0  0
 21 50  1  0  0  0  0
 21 51  1  0  0  0  0
 22 23  1  1  0  0  0
 22 24  1  0  0  0  0
 22 32  1  0  0  0  0
 24 30  1  0  0  0  0
 24 25  2  0  0  0  0
 25 26  1  0  0  0  0
 25 52  1  0  0  0  0
 26 27  2  0  0  0  0
 26 28  1  0  0  0  0
 28 29  2  0  0  0  0
 28 53  1  0  0  0  0
 29 30  1  0  0  0  0
 29 54  1  0  0  0  0
 30 31  1  1  0  0  0
 31 55  1  0  0  0  0
 31 56  1  0  0  0  0
 31 57  1  0  0  0  0
 34 58  1  0  0  0  0
 35 59  1  0  0  0  0
 35 60  1  0  0  0  0
 35 61  1  0  0  0  0
 36 37  1  0  0  0  0
 37 38  1  0  0  0  0
 37 39  1  0  0  0  0
 37 40  1  0  0  0  0
 39 62  1  0  0  0  0
 39 63  1  0  0  0  0
 39 64  1  0  0  0  0
 40 65  1  0  0  0  0
 40 66  1  0  0  0  0
 40 67  1  0  0  0  0
M  END
$$$$
