ZINC01530759
 OpenBabel08292219463D

 53 54  0  0  1  0  0  0  0  0999 V2000
   -0.0187    1.5258    0.0104 C   0  0  0  0  0  0  0  0  0  0  0  0
    0.0021   -0.0041    0.0020 C   0  0  0  0  0  0  0  0  0  0  0  0
    0.7421   -0.5109    1.2415 C   0  0  0  0  0  0  0  0  0  0  0  0
    0.7620   -1.9797    1.2335 N   0  3  0  0  0  0  0  0  0  0  0  0
    1.4725   -2.4664    2.4236 C   0  0  0  0  0  0  0  0  0  0  0  0
    1.4932   -3.9962    2.4152 C   0  0  1  0  0  0  0  0  0  0  0  0
    2.0034   -4.3477    1.5184 H   0  0  0  0  0  0  0  0  0  0  0  0
    2.2332   -4.5030    3.6547 C   0  0  0  0  0  0  0  0  0  0  0  0
    2.3545   -5.9254    3.5887 O   0  0  0  0  0  0  0  0  0  0  0  0
    2.9903   -6.5374    4.6181 C   0  0  0  0  0  0  0  0  0  0  0  0
    3.4844   -5.7890    5.6761 C   0  0  0  0  0  0  0  0  0  0  0  0
    4.1319   -6.4133    6.7233 C   0  0  0  0  0  0  0  0  0  0  0  0
    4.2944   -7.7900    6.7283 C   0  0  0  0  0  0  0  0  0  0  0  0
    3.8114   -8.5511    5.6877 C   0  0  0  0  0  0  0  0  0  0  0  0
    3.1468   -7.9331    4.6213 C   0  0  0  0  0  0  0  0  0  0  0  0
    2.6230   -8.7379    3.5112 C   0  0  0  0  0  0  0  0  0  0  0  0
    2.0527   -8.1978    2.5869 O   0  0  0  0  0  0  0  0  0  0  0  0
    2.7938  -10.2352    3.5198 C   0  0  0  0  0  0  0  0  0  0  0  0
    2.1628  -10.8277    2.2581 C   0  0  0  0  0  0  0  0  0  0  0  0
    2.3335  -12.3249    2.2667 C   0  0  0  0  0  0  0  0  0  0  0  0
    3.4576  -12.8956    1.6996 C   0  0  0  0  0  0  0  0  0  0  0  0
    3.6143  -14.2691    1.7075 C   0  0  0  0  0  0  0  0  0  0  0  0
    2.6471  -15.0718    2.2828 C   0  0  0  0  0  0  0  0  0  0  0  0
    1.5234  -14.5010    2.8507 C   0  0  0  0  0  0  0  0  0  0  0  0
    1.3688  -13.1273    2.8467 C   0  0  0  0  0  0  0  0  0  0  0  0
    0.1526   -4.4908    2.4253 O   0  0  0  0  0  0  0  0  0  0  0  0
    1.0039    1.9031    0.0027 H   0  0  0  0  0  0  0  0  0  0  0  0
   -0.5459    1.8868   -0.8726 H   0  0  0  0  0  0  0  0  0  0  0  0
   -0.5289    1.8773    0.9072 H   0  0  0  0  0  0  0  0  0  0  0  0
   -1.0205   -0.3814    0.0098 H   0  0  0  0  0  0  0  0  0  0  0  0
    0.5123   -0.3556   -0.8948 H   0  0  0  0  0  0  0  0  0  0  0  0
    1.7647   -0.1336    1.2338 H   0  0  0  0  0  0  0  0  0  0  0  0
    0.2319   -0.1594    2.1383 H   0  0  0  0  0  0  0  0  0  0  0  0
   -0.1846   -2.3290    1.2406 H   0  0  0  0  0  0  0  0  0  0  0  0
    2.4951   -2.0891    2.4158 H   0  0  0  0  0  0  0  0  0  0  0  0
    0.9623   -2.1149    3.3204 H   0  0  0  0  0  0  0  0  0  0  0  0
    3.2262   -4.0551    3.6935 H   0  0  0  0  0  0  0  0  0  0  0  0
    1.6749   -4.2271    4.5493 H   0  0  0  0  0  0  0  0  0  0  0  0
    3.3626   -4.7159    5.6805 H   0  0  0  0  0  0  0  0  0  0  0  0
    4.5148   -5.8251    7.5442 H   0  0  0  0  0  0  0  0  0  0  0  0
    4.8030   -8.2680    7.5526 H   0  0  0  0  0  0  0  0  0  0  0  0
    3.9412   -9.6232    5.6958 H   0  0  0  0  0  0  0  0  0  0  0  0
    3.8557  -10.4796    3.5440 H   0  0  0  0  0  0  0  0  0  0  0  0
    2.3049  -10.6516    4.4005 H   0  0  0  0  0  0  0  0  0  0  0  0
    1.1008  -10.5832    2.2339 H   0  0  0  0  0  0  0  0  0  0  0  0
    2.6517  -10.4113    1.3774 H   0  0  0  0  0  0  0  0  0  0  0  0
    4.2133  -12.2685    1.2501 H   0  0  0  0  0  0  0  0  0  0  0  0
    4.4922  -14.7150    1.2638 H   0  0  0  0  0  0  0  0  0  0  0  0
    2.7691  -16.1448    2.2884 H   0  0  0  0  0  0  0  0  0  0  0  0
    0.7675  -15.1282    3.2999 H   0  0  0  0  0  0  0  0  0  0  0  0
    0.4927  -12.6812    3.2937 H   0  0  0  0  0  0  0  0  0  0  0  0
   -0.3619   -4.2167    3.1968 H   0  0  0  0  0  0  0  0  0  0  0  0
    1.2343   -2.3051    0.4033 H   0  0  0  0  0  0  0  0  0  0  0  0
  1  2  1  0  0  0  0
  1 27  1  0  0  0  0
  1 28  1  0  0  0  0
  1 29  1  0  0  0  0
  2  3  1  0  0  0  0
  2 30  1  0  0  0  0
  2 31  1  0  0  0  0
  3  4  1  0  0  0  0
  3 32  1  0  0  0  0
  3 33  1  0  0  0  0
  4  5  1  0  0  0  0
  4 34  1  0  0  0  0
  4 53  1  0  0  0  0
  5  6  1  0  0  0  0
  5 35  1  0  0  0  0
  5 36  1  0  0  0  0
  6  7  1  6  0  0  0
  6  8  1  0  0  0  0
  6 26  1  0  0  0  0
  8  9  1  0  0  0  0
  8 37  1  0  0  0  0
  8 38  1  0  0  0  0
  9 10  1  0  0  0  0
 10 15  2  0  0  0  0
 10 11  1  0  0  0  0
 11 12  2  0  0  0  0
 11 39  1  0  0  0  0
 12 13  1  0  0  0  0
 12 40  1  0  0  0  0
 13 14  2  0  0  0  0
 13 41  1  0  0  0  0
 14 15  1  0  0  0  0
 14 42  1  0  0  0  0
 15 16  1  0  0  0  0
 16 17  2  0  0  0  0
 16 18  1  0  0  0  0
 18 19  1  0  0  0  0
 18 43  1  0  0  0  0
 18 44  1  0  0  0  0
 19 20  1  0  0  0  0
 19 45  1  0  0  0  0
 19 46  1  0  0  0  0
 20 25  2  0  0  0  0
 20 21  1  0  0  0  0
 21 22  2  0  0  0  0
 21 47  1  0  0  0  0
 22 23  1  0  0  0  0
 22 48  1  0  0  0  0
 23 24  2  0  0  0  0
 23 49  1  0  0  0  0
 24 25  1  0  0  0  0
 24 50  1  0  0  0  0
 25 51  1  0  0  0  0
 26 52  1  0  0  0  0
M  CHG  1   4   1
M  END
$$$$
