ZINC12503240
 OpenBabel08292219463D

 33 33  0  0  1  0  0  0  0  0999 V2000
    2.7963    4.3400   -3.1105 C   0  0  0  0  0  0  0  0  0  0  0  0
    3.0517    2.8924   -3.4427 C   0  0  0  0  0  0  0  0  0  0  0  0
    3.8821    2.1896   -2.7129 C   0  0  0  0  0  0  0  0  0  0  0  0
    4.5867    2.8303   -1.5450 C   0  0  0  0  0  0  0  0  0  0  0  0
    4.3265    2.0251   -0.2980 C   0  0  0  0  0  0  0  0  0  0  0  0
    5.3308    1.5783    0.4146 C   0  0  0  0  0  0  0  0  0  0  0  0
    5.0705    0.7730    1.6616 C   0  0  0  0  0  0  0  0  0  0  0  0
    5.8089   -0.5638    1.5688 C   0  0  0  0  0  0  0  0  0  0  0  0
    5.5487   -1.3691    2.8157 C   0  0  0  0  0  0  0  0  0  0  0  0
    4.9042   -0.8923    3.7188 O   0  0  0  0  0  0  0  0  0  0  0  0
    6.0927   -2.7693    2.9357 C   0  0  2  0  0  0  0  0  0  0  0  0
    6.8268   -2.8999    2.2693 H   0  0  0  0  0  0  0  0  0  0  0  0
    5.1186   -3.8813    3.3301 C   0  0  1  0  0  0  0  0  0  0  0  0
    5.2819   -4.8729    2.9081 H   0  0  0  0  0  0  0  0  0  0  0  0
    6.1028   -3.3710    4.2318 O   0  0  0  0  0  0  0  0  0  0  0  0
    3.6804   -3.5017    3.5723 C   0  0  0  0  0  0  0  0  0  0  0  0
    2.9959   -3.1021    2.6543 O   0  0  0  0  0  0  0  0  0  0  0  0
    3.1549   -3.6063    4.8089 N   0  0  0  0  0  0  0  0  0  0  0  0
    2.3891    4.4151   -2.1023 H   0  0  0  0  0  0  0  0  0  0  0  0
    3.7320    4.8962   -3.1669 H   0  0  0  0  0  0  0  0  0  0  0  0
    2.0831    4.7557   -3.8223 H   0  0  0  0  0  0  0  0  0  0  0  0
    2.5501    2.4344   -4.2823 H   0  0  0  0  0  0  0  0  0  0  0  0
    4.0651    1.1522   -2.9509 H   0  0  0  0  0  0  0  0  0  0  0  0
    5.6586    2.8618   -1.7401 H   0  0  0  0  0  0  0  0  0  0  0  0
    4.2126    3.8448   -1.4070 H   0  0  0  0  0  0  0  0  0  0  0  0
    3.3120    1.8164    0.0082 H   0  0  0  0  0  0  0  0  0  0  0  0
    6.3452    1.7869    0.1085 H   0  0  0  0  0  0  0  0  0  0  0  0
    5.4265    1.3250    2.5315 H   0  0  0  0  0  0  0  0  0  0  0  0
    4.0003    0.5910    1.7598 H   0  0  0  0  0  0  0  0  0  0  0  0
    5.4823   -1.0703    0.7708 H   0  0  0  0  0  0  0  0  0  0  0  0
    6.8791   -0.3818    1.4705 H   0  0  0  0  0  0  0  0  0  0  0  0
    3.6789   -3.9937    5.5274 H   0  0  0  0  0  0  0  0  0  0  0  0
    2.2527   -3.2942    4.9805 H   0  0  0  0  0  0  0  0  0  0  0  0
  1  2  1  0  0  0  0
  1 19  1  0  0  0  0
  1 20  1  0  0  0  0
  1 21  1  0  0  0  0
  2  3  2  0  0  0  0
  2 22  1  0  0  0  0
  3  4  1  0  0  0  0
  3 23  1  0  0  0  0
  4  5  1  0  0  0  0
  4 24  1  0  0  0  0
  4 25  1  0  0  0  0
  5  6  2  0  0  0  0
  5 26  1  0  0  0  0
  6  7  1  0  0  0  0
  6 27  1  0  0  0  0
  7  8  1  0  0  0  0
  7 28  1  0  0  0  0
  7 29  1  0  0  0  0
  8  9  1  0  0  0  0
  8 30  1  0  0  0  0
  8 31  1  0  0  0  0
  9 10  2  0  0  0  0
  9 11  1  0  0  0  0
 11 12  1  6  0  0  0
 11 15  1  0  0  0  0
 11 13  1  0  0  0  0
 13 14  1  6  0  0  0
 13 15  1  0  0  0  0
 13 16  1  0  0  0  0
 16 17  2  0  0  0  0
 16 18  1  0  0  0  0
 18 32  1  0  0  0  0
 18 33  1  0  0  0  0
M  END
$$$$
