ZINC01546066
 OpenBabel08292219463D

 52 54  0  0  0  0  0  0  0  0999 V2000
    1.3190    1.4185    0.8998 C   0  0  0  0  0  0  0  0  0  0  0  0
    1.1221    0.0121    0.7412 O   0  0  0  0  0  0  0  0  0  0  0  0
    1.6336   -0.7719    1.8209 C   0  0  0  0  0  0  0  0  0  0  0  0
    1.3686   -2.2534    1.5456 C   0  0  0  0  0  0  0  0  0  0  0  0
    2.1105   -2.6643    0.3955 O   0  0  0  0  0  0  0  0  0  0  0  0
    1.9861   -3.9631    0.0122 C   0  0  0  0  0  0  0  0  0  0  0  0
    1.1727   -4.8014    0.7206 C   0  0  0  0  0  0  0  0  0  0  0  0
    1.0439   -6.1386    0.3269 C   0  0  0  0  0  0  0  0  0  0  0  0
    1.7562   -6.6146   -0.8018 C   0  0  0  0  0  0  0  0  0  0  0  0
    2.5842   -5.7378   -1.5132 C   0  0  0  0  0  0  0  0  0  0  0  0
    2.6894   -4.4253   -1.1088 C   0  0  0  0  0  0  0  0  0  0  0  0
    3.4878   -3.5711   -1.8004 O   0  0  0  0  0  0  0  0  0  0  0  0
    4.1782   -4.1019   -2.9333 C   0  0  0  0  0  0  0  0  0  0  0  0
    5.0210   -3.0002   -3.5791 C   0  0  0  0  0  0  0  0  0  0  0  0
    6.0448   -2.5894   -2.6708 O   0  0  0  0  0  0  0  0  0  0  0  0
    6.8933   -1.5581   -3.1792 C   0  0  0  0  0  0  0  0  0  0  0  0
    1.6146   -7.9009   -1.1583 N   0  0  0  0  0  0  0  0  0  0  0  0
    0.8310   -8.6986   -0.4725 C   0  0  0  0  0  0  0  0  0  0  0  0
    0.1465   -8.2987    0.5874 N   0  0  0  0  0  0  0  0  0  0  0  0
    0.2146   -7.0483    1.0253 C   0  0  0  0  0  0  0  0  0  0  0  0
   -0.5043   -6.6451    2.1328 N   0  0  0  0  0  0  0  0  0  0  0  0
   -1.2223   -7.5837    2.8797 C   0  0  0  0  0  0  0  0  0  0  0  0
   -2.4417   -7.2339    3.4483 C   0  0  0  0  0  0  0  0  0  0  0  0
   -3.1548   -8.1581    4.1879 C   0  0  0  0  0  0  0  0  0  0  0  0
   -2.6612   -9.4349    4.3666 C   0  0  0  0  0  0  0  0  0  0  0  0
   -1.4382   -9.7960    3.7995 C   0  0  0  0  0  0  0  0  0  0  0  0
   -0.7210   -8.8652    3.0488 C   0  0  0  0  0  0  0  0  0  0  0  0
   -0.9239  -11.1197    3.9839 C   0  0  0  0  0  0  0  0  0  0  0  0
   -0.5023  -12.2049    4.1351 C   0  0  0  0  0  0  0  0  0  0  0  0
    2.3858    1.6300    0.9737 H   0  0  0  0  0  0  0  0  0  0  0  0
    0.9034    1.9430    0.0394 H   0  0  0  0  0  0  0  0  0  0  0  0
    0.8182    1.7554    1.8074 H   0  0  0  0  0  0  0  0  0  0  0  0
    2.7069   -0.6059    1.9138 H   0  0  0  0  0  0  0  0  0  0  0  0
    1.1392   -0.4804    2.7476 H   0  0  0  0  0  0  0  0  0  0  0  0
    1.6782   -2.8442    2.4078 H   0  0  0  0  0  0  0  0  0  0  0  0
    0.3045   -2.4047    1.3647 H   0  0  0  0  0  0  0  0  0  0  0  0
    0.6320   -4.4344    1.5804 H   0  0  0  0  0  0  0  0  0  0  0  0
    3.1329   -6.0870   -2.3754 H   0  0  0  0  0  0  0  0  0  0  0  0
    4.8282   -4.9164   -2.6138 H   0  0  0  0  0  0  0  0  0  0  0  0
    3.4545   -4.4770   -3.6569 H   0  0  0  0  0  0  0  0  0  0  0  0
    5.4773   -3.3804   -4.4931 H   0  0  0  0  0  0  0  0  0  0  0  0
    4.3841   -2.1485   -3.8181 H   0  0  0  0  0  0  0  0  0  0  0  0
    6.2953   -0.6764   -3.4098 H   0  0  0  0  0  0  0  0  0  0  0  0
    7.6433   -1.3027   -2.4306 H   0  0  0  0  0  0  0  0  0  0  0  0
    7.3884   -1.9084   -4.0848 H   0  0  0  0  0  0  0  0  0  0  0  0
    0.7401   -9.7278   -0.7869 H   0  0  0  0  0  0  0  0  0  0  0  0
   -0.5113   -5.7106    2.3927 H   0  0  0  0  0  0  0  0  0  0  0  0
   -2.8329   -6.2365    3.3119 H   0  0  0  0  0  0  0  0  0  0  0  0
   -4.1012   -7.8805    4.6278 H   0  0  0  0  0  0  0  0  0  0  0  0
   -3.2213  -10.1542    4.9456 H   0  0  0  0  0  0  0  0  0  0  0  0
    0.2239   -9.1405    2.6039 H   0  0  0  0  0  0  0  0  0  0  0  0
   -0.1252  -13.1754    4.2703 H   0  0  0  0  0  0  0  0  0  0  0  0
  1  2  1  0  0  0  0
  1 30  1  0  0  0  0
  1 31  1  0  0  0  0
  1 32  1  0  0  0  0
  2  3  1  0  0  0  0
  3  4  1  0  0  0  0
  3 33  1  0  0  0  0
  3 34  1  0  0  0  0
  4  5  1  0  0  0  0
  4 35  1  0  0  0  0
  4 36  1  0  0  0  0
  5  6  1  0  0  0  0
  6 11  2  0  0  0  0
  6  7  1  0  0  0  0
  7  8  2  0  0  0  0
  7 37  1  0  0  0  0
  8 20  1  0  0  0  0
  8  9  1  0  0  0  0
  9 10  2  0  0  0  0
  9 17  1  0  0  0  0
 10 11  1  0  0  0  0
 10 38  1  0  0  0  0
 11 12  1  0  0  0  0
 12 13  1  0  0  0  0
 13 14  1  0  0  0  0
 13 39  1  0  0  0  0
 13 40  1  0  0  0  0
 14 15  1  0  0  0  0
 14 41  1  0  0  0  0
 14 42  1  0  0  0  0
 15 16  1  0  0  0  0
 16 43  1  0  0  0  0
 16 44  1  0  0  0  0
 16 45  1  0  0  0  0
 17 18  2  0  0  0  0
 18 19  1  0  0  0  0
 18 46  1  0  0  0  0
 19 20  2  0  0  0  0
 20 21  1  0  0  0  0
 21 22  1  0  0  0  0
 21 47  1  0  0  0  0
 22 27  2  0  0  0  0
 22 23  1  0  0  0  0
 23 24  2  0  0  0  0
 23 48  1  0  0  0  0
 24 25  1  0  0  0  0
 24 49  1  0  0  0  0
 25 26  2  0  0  0  0
 25 50  1  0  0  0  0
 26 27  1  0  0  0  0
 26 28  1  0  0  0  0
 27 51  1  0  0  0  0
 28 29  3  0  0  0  0
 29 52  1  0  0  0  0
M  END
$$$$
