ZINC33974796
 OpenBabel08292219463D

 72 78  0  0  1  0  0  0  0  0999 V2000
    2.1474   -1.1038   -3.6334 C   0  0  0  0  0  0  0  0  0  0  0  0
    3.1878   -0.2087   -3.4155 C   0  0  0  0  0  0  0  0  0  0  0  0
    3.6329    0.0233   -2.1408 C   0  0  0  0  0  0  0  0  0  0  0  0
    3.0407   -0.6369   -1.0850 C   0  0  0  0  0  0  0  0  0  0  0  0
    1.9809   -1.5524   -1.2779 C   0  0  0  0  0  0  0  0  0  0  0  0
    1.5506   -1.7648   -2.6045 C   0  0  0  0  0  0  0  0  0  0  0  0
    1.5160   -2.1252   -0.0237 C   0  0  0  0  0  0  0  0  0  0  0  0
    2.0800   -1.7673    1.0924 N   0  0  0  0  0  0  0  0  0  0  0  0
    3.2653   -0.6621    0.6718 S   0  0  0  0  0  0  0  0  0  0  0  0
    0.4719   -3.0515   -0.0182 N   0  0  0  0  0  0  0  0  0  0  0  0
   -0.9273   -2.6134    0.1017 C   0  0  0  0  0  0  0  0  0  0  0  0
   -1.5969   -3.4258    1.2150 C   0  0  0  0  0  0  0  0  0  0  0  0
   -1.4319   -4.8589    0.9409 N   0  3  1  0  0  0  0  0  0  0  0  0
   -0.0088   -5.2171    0.9916 C   0  0  0  0  0  0  0  0  0  0  0  0
    0.7391   -4.4931   -0.1384 C   0  0  0  0  0  0  0  0  0  0  0  0
   -2.1669   -5.6360    1.9477 C   0  0  0  0  0  0  0  0  0  0  0  0
   -2.1000   -7.1228    1.5930 C   0  0  2  0  0  0  0  0  0  0  0  0
   -1.0580   -7.4245    1.4867 H   0  0  0  0  0  0  0  0  0  0  0  0
   -2.8385   -7.3665    0.2754 C   0  0  0  0  0  0  0  0  0  0  0  0
   -2.7716   -8.8533   -0.0794 C   0  0  0  0  0  0  0  0  0  0  0  0
   -3.4289   -9.6730    1.0328 C   0  0  0  0  0  0  0  0  0  0  0  0
   -2.6905   -9.4294    2.3505 C   0  0  0  0  0  0  0  0  0  0  0  0
   -2.7573   -7.9425    2.7052 C   0  0  1  0  0  0  0  0  0  0  0  0
   -3.7993   -7.6409    2.8115 H   0  0  0  0  0  0  0  0  0  0  0  0
   -2.0189   -7.6989    4.0228 C   0  0  0  0  0  0  0  0  0  0  0  0
   -2.7186   -8.3885    5.1096 N   0  0  0  0  0  0  0  0  0  0  0  0
   -3.6930   -7.8125    5.8229 C   0  0  0  0  0  0  0  0  0  0  0  0
   -4.1036   -6.6831    5.6634 O   0  0  0  0  0  0  0  0  0  0  0  0
   -4.2024   -8.7889    6.8586 C   0  0  1  0  0  0  0  0  0  0  0  0
   -4.1290   -8.4071    7.8770 H   0  0  0  0  0  0  0  0  0  0  0  0
   -5.6517   -9.2083    6.4687 C   0  0  2  0  0  0  0  0  0  0  0  0
   -6.3407   -8.3921    6.2512 H   0  0  0  0  0  0  0  0  0  0  0  0
   -6.0930  -10.1886    7.5980 C   0  0  0  0  0  0  0  0  0  0  0  0
   -5.2460  -11.4603    7.3640 C   0  0  0  0  0  0  0  0  0  0  0  0
   -4.3736  -11.1287    6.1150 C   0  0  1  0  0  0  0  0  0  0  0  0
   -3.9614  -11.9854    5.5818 H   0  0  0  0  0  0  0  0  0  0  0  0
   -5.3620  -10.2021    5.2895 C   0  0  0  0  0  0  0  0  0  0  0  0
   -3.3331  -10.0551    6.6151 C   0  0  1  0  0  0  0  0  0  0  0  0
   -2.7886  -10.3792    7.5020 H   0  0  0  0  0  0  0  0  0  0  0  0
   -2.4393   -9.6475    5.4658 C   0  0  0  0  0  0  0  0  0  0  0  0
   -1.5982  -10.3512    4.9492 O   0  0  0  0  0  0  0  0  0  0  0  0
    1.8017   -1.2755   -4.6420 H   0  0  0  0  0  0  0  0  0  0  0  0
    3.6449    0.3028   -4.2496 H   0  0  0  0  0  0  0  0  0  0  0  0
    4.4413    0.7174   -1.9644 H   0  0  0  0  0  0  0  0  0  0  0  0
    0.7441   -2.4548   -2.8043 H   0  0  0  0  0  0  0  0  0  0  0  0
   -0.9590   -1.5531    0.3523 H   0  0  0  0  0  0  0  0  0  0  0  0
   -1.4472   -2.7857   -0.8407 H   0  0  0  0  0  0  0  0  0  0  0  0
   -1.1334   -3.1830    2.1712 H   0  0  0  0  0  0  0  0  0  0  0  0
   -2.6588   -3.1831    1.2537 H   0  0  0  0  0  0  0  0  0  0  0  0
    0.4066   -4.9201    1.9545 H   0  0  0  0  0  0  0  0  0  0  0  0
    0.0995   -6.2944    0.8656 H   0  0  0  0  0  0  0  0  0  0  0  0
    0.3847   -4.8520   -1.1047 H   0  0  0  0  0  0  0  0  0  0  0  0
    1.8097   -4.6761   -0.0467 H   0  0  0  0  0  0  0  0  0  0  0  0
   -1.7188   -5.4760    2.9284 H   0  0  0  0  0  0  0  0  0  0  0  0
   -3.2079   -5.3135    1.9669 H   0  0  0  0  0  0  0  0  0  0  0  0
   -3.8805   -7.0648    0.3817 H   0  0  0  0  0  0  0  0  0  0  0  0
   -2.3702   -6.7825   -0.5170 H   0  0  0  0  0  0  0  0  0  0  0  0
   -3.2977   -9.0269   -1.0181 H   0  0  0  0  0  0  0  0  0  0  0  0
   -1.7296   -9.1550   -0.1857 H   0  0  0  0  0  0  0  0  0  0  0  0
   -4.4710   -9.3713    1.1391 H   0  0  0  0  0  0  0  0  0  0  0  0
   -3.3813  -10.7322    0.7801 H   0  0  0  0  0  0  0  0  0  0  0  0
   -3.1588  -10.0133    3.1428 H   0  0  0  0  0  0  0  0  0  0  0  0
   -1.6485   -9.7310    2.2441 H   0  0  0  0  0  0  0  0  0  0  0  0
   -1.0013   -8.0819    3.9452 H   0  0  0  0  0  0  0  0  0  0  0  0
   -1.9896   -6.6293    4.2305 H   0  0  0  0  0  0  0  0  0  0  0  0
   -5.8760   -9.7624    8.5775 H   0  0  0  0  0  0  0  0  0  0  0  0
   -7.1550  -10.4175    7.5090 H   0  0  0  0  0  0  0  0  0  0  0  0
   -4.6122  -11.6591    8.2282 H   0  0  0  0  0  0  0  0  0  0  0  0
   -5.8916  -12.3147    7.1606 H   0  0  0  0  0  0  0  0  0  0  0  0
   -6.2573  -10.7412    4.9799 H   0  0  0  0  0  0  0  0  0  0  0  0
   -4.8769   -9.7075    4.4480 H   0  0  0  0  0  0  0  0  0  0  0  0
   -1.7979   -5.0690    0.0244 H   0  0  0  0  0  0  0  0  0  0  0  0
  1  6  2  0  0  0  0
  1  2  1  0  0  0  0
  1 42  1  0  0  0  0
  2  3  2  0  0  0  0
  2 43  1  0  0  0  0
  3  4  1  0  0  0  0
  3 44  1  0  0  0  0
  4  9  1  0  0  0  0
  4  5  2  0  0  0  0
  5  6  1  0  0  0  0
  5  7  1  0  0  0  0
  6 45  1  0  0  0  0
  7  8  2  0  0  0  0
  7 10  1  0  0  0  0
  8  9  1  0  0  0  0
 10 15  1  0  0  0  0
 10 11  1  0  0  0  0
 11 12  1  0  0  0  0
 11 46  1  0  0  0  0
 11 47  1  0  0  0  0
 12 13  1  0  0  0  0
 12 48  1  0  0  0  0
 12 49  1  0  0  0  0
 13 14  1  0  0  0  0
 13 16  1  0  0  0  0
 13 72  1  6  0  0  0
 14 15  1  0  0  0  0
 14 50  1  0  0  0  0
 14 51  1  0  0  0  0
 15 52  1  0  0  0  0
 15 53  1  0  0  0  0
 16 17  1  0  0  0  0
 16 54  1  0  0  0  0
 16 55  1  0  0  0  0
 17 18  1  6  0  0  0
 17 23  1  0  0  0  0
 17 19  1  0  0  0  0
 19 20  1  0  0  0  0
 19 56  1  0  0  0  0
 19 57  1  0  0  0  0
 20 21  1  0  0  0  0
 20 58  1  0  0  0  0
 20 59  1  0  0  0  0
 21 22  1  0  0  0  0
 21 60  1  0  0  0  0
 21 61  1  0  0  0  0
 22 23  1  0  0  0  0
 22 62  1  0  0  0  0
 22 63  1  0  0  0  0
 23 24  1  1  0  0  0
 23 25  1  0  0  0  0
 25 26  1  0  0  0  0
 25 64  1  0  0  0  0
 25 65  1  0  0  0  0
 26 40  1  0  0  0  0
 26 27  1  0  0  0  0
 27 28  2  0  0  0  0
 27 29  1  0  0  0  0
 29 30  1  1  0  0  0
 29 38  1  0  0  0  0
 29 31  1  0  0  0  0
 31 32  1  6  0  0  0
 31 37  1  0  0  0  0
 31 33  1  0  0  0  0
 33 34  1  0  0  0  0
 33 66  1  0  0  0  0
 33 67  1  0  0  0  0
 34 35  1  0  0  0  0
 34 68  1  0  0  0  0
 34 69  1  0  0  0  0
 35 36  1  6  0  0  0
 35 37  1  0  0  0  0
 35 38  1  0  0  0  0
 37 70  1  0  0  0  0
 37 71  1  0  0  0  0
 38 39  1  1  0  0  0
 38 40  1  0  0  0  0
 40 41  2  0  0  0  0
M  CHG  1  13   1
M  END
$$$$
