ZINC03938695
 OpenBabel08292219463D

 58 61  0  0  1  0  0  0  0  0999 V2000
   -0.0608    1.5246   -0.0085 C   0  0  0  0  0  0  0  0  0  0  0  0
    0.0021   -0.0041    0.0020 C   0  0  0  0  0  0  0  0  0  0  0  0
    0.6061   -0.4987   -1.3138 C   0  0  2  0  0  0  0  0  0  0  0  0
   -0.1896    0.0498   -2.4829 C   0  0  0  0  0  0  0  0  0  0  0  0
   -1.6586   -0.3393   -2.2536 C   0  0  0  0  0  0  0  0  0  0  0  0
   -1.8278   -1.8494   -2.1167 C   0  0  1  0  0  0  0  0  0  0  0  0
   -1.5804   -2.3213   -3.0675 H   0  0  0  0  0  0  0  0  0  0  0  0
   -0.9208   -2.4280   -1.0213 C   0  0  2  0  0  0  0  0  0  0  0  0
   -1.1978   -2.0153   -0.0512 H   0  0  0  0  0  0  0  0  0  0  0  0
    0.5159   -2.0467   -1.3854 C   0  0  2  0  0  0  0  0  0  0  0  0
    0.7679   -2.3969   -2.3864 H   0  0  0  0  0  0  0  0  0  0  0  0
    1.5858   -2.4672   -0.3717 C   0  0  0  0  0  0  0  0  0  0  0  0
    2.7486   -1.4798   -0.6636 C   0  0  0  0  0  0  0  0  0  0  0  0
    2.1082   -0.2340   -1.3251 C   0  0  1  0  0  0  0  0  0  0  0  0
    2.5897   -0.0868   -2.7083 C   0  0  0  0  0  0  0  0  0  0  0  0
    2.9738    0.0307   -3.8114 C   0  0  0  0  0  0  0  0  0  0  0  0
    2.4099    0.9392   -0.5672 O   0  0  0  0  0  0  0  0  0  0  0  0
    3.7009    1.2981   -0.4877 C   0  0  0  0  0  0  0  0  0  0  0  0
    4.5467    0.6379   -1.0432 O   0  0  0  0  0  0  0  0  0  0  0  0
    4.0953    2.5244    0.2944 C   0  0  0  0  0  0  0  0  0  0  0  0
   -1.0689   -3.9522   -1.0034 C   0  0  0  0  0  0  0  0  0  0  0  0
   -2.4972   -4.3145   -0.5911 C   0  0  0  0  0  0  0  0  0  0  0  0
   -3.4675   -3.6160   -1.5265 C   0  0  0  0  0  0  0  0  0  0  0  0
   -4.4339   -4.3463   -2.0710 C   0  0  0  0  0  0  0  0  0  0  0  0
   -5.4138   -3.7156   -2.9729 C   0  0  0  0  0  0  0  0  0  0  0  0
   -6.0971   -4.4064   -3.8296 N   0  0  0  0  0  0  0  0  0  0  0  0
   -7.0289   -3.7605   -4.6779 O   0  0  0  0  0  0  0  0  0  0  0  0
   -5.5791   -2.2138   -2.8430 C   0  0  0  0  0  0  0  0  0  0  0  0
   -4.1817   -1.5967   -2.8773 C   0  0  0  0  0  0  0  0  0  0  0  0
   -3.2889   -2.1627   -1.7702 C   0  0  2  0  0  0  0  0  0  0  0  0
   -3.5347   -1.6400   -0.8458 H   0  0  0  0  0  0  0  0  0  0  0  0
    0.9504    1.9301    0.0255 H   0  0  0  0  0  0  0  0  0  0  0  0
   -0.5570    1.8616   -0.9186 H   0  0  0  0  0  0  0  0  0  0  0  0
   -0.6206    1.8712    0.8602 H   0  0  0  0  0  0  0  0  0  0  0  0
    0.6226   -0.3365    0.8342 H   0  0  0  0  0  0  0  0  0  0  0  0
   -1.0039   -0.4083    0.1147 H   0  0  0  0  0  0  0  0  0  0  0  0
   -0.0943    1.1350   -2.5203 H   0  0  0  0  0  0  0  0  0  0  0  0
    0.1695   -0.3878   -3.4144 H   0  0  0  0  0  0  0  0  0  0  0  0
   -2.0160    0.1424   -1.3435 H   0  0  0  0  0  0  0  0  0  0  0  0
   -2.2546    0.0102   -3.0967 H   0  0  0  0  0  0  0  0  0  0  0  0
    1.2211   -2.3429    0.6479 H   0  0  0  0  0  0  0  0  0  0  0  0
    1.9003   -3.4960   -0.5472 H   0  0  0  0  0  0  0  0  0  0  0  0
    3.2420   -1.1974    0.2665 H   0  0  0  0  0  0  0  0  0  0  0  0
    3.4662   -1.9376   -1.3444 H   0  0  0  0  0  0  0  0  0  0  0  0
    3.3173    0.1357   -4.7981 H   0  0  0  0  0  0  0  0  0  0  0  0
    3.2044    2.9856    0.7206 H   0  0  0  0  0  0  0  0  0  0  0  0
    4.7764    2.2402    1.0966 H   0  0  0  0  0  0  0  0  0  0  0  0
    4.5903    3.2343   -0.3682 H   0  0  0  0  0  0  0  0  0  0  0  0
   -0.8651   -4.3496   -1.9977 H   0  0  0  0  0  0  0  0  0  0  0  0
   -0.3645   -4.3782   -0.2889 H   0  0  0  0  0  0  0  0  0  0  0  0
   -2.6351   -5.3935   -0.6607 H   0  0  0  0  0  0  0  0  0  0  0  0
   -2.6763   -3.9864    0.4328 H   0  0  0  0  0  0  0  0  0  0  0  0
   -4.5017   -5.4018   -1.8527 H   0  0  0  0  0  0  0  0  0  0  0  0
   -7.4901   -4.3577   -5.2826 H   0  0  0  0  0  0  0  0  0  0  0  0
   -6.1728   -1.8330   -3.6740 H   0  0  0  0  0  0  0  0  0  0  0  0
   -6.0667   -1.9749   -1.8979 H   0  0  0  0  0  0  0  0  0  0  0  0
   -3.7238   -1.8082   -3.8435 H   0  0  0  0  0  0  0  0  0  0  0  0
   -4.2674   -0.5169   -2.7553 H   0  0  0  0  0  0  0  0  0  0  0  0
  1  2  1  0  0  0  0
  1 32  1  0  0  0  0
  1 33  1  0  0  0  0
  1 34  1  0  0  0  0
  2 35  1  0  0  0  0
  2 36  1  0  0  0  0
  3  2  1  1  0  0  0
  3 10  1  0  0  0  0
  3 14  1  0  0  0  0
  3  4  1  0  0  0  0
  4  5  1  0  0  0  0
  4 37  1  0  0  0  0
  4 38  1  0  0  0  0
  5  6  1  0  0  0  0
  5 39  1  0  0  0  0
  5 40  1  0  0  0  0
  6  7  1  6  0  0  0
  6 30  1  0  0  0  0
  6  8  1  0  0  0  0
  8  9  1  1  0  0  0
  8 10  1  0  0  0  0
  8 21  1  0  0  0  0
 10 11  1  6  0  0  0
 10 12  1  0  0  0  0
 12 13  1  0  0  0  0
 12 41  1  0  0  0  0
 12 42  1  0  0  0  0
 13 14  1  0  0  0  0
 13 43  1  0  0  0  0
 13 44  1  0  0  0  0
 14 15  1  6  0  0  0
 14 17  1  0  0  0  0
 15 16  3  0  0  0  0
 16 45  1  0  0  0  0
 17 18  1  0  0  0  0
 18 19  2  0  0  0  0
 18 20  1  0  0  0  0
 20 46  1  0  0  0  0
 20 47  1  0  0  0  0
 20 48  1  0  0  0  0
 21 22  1  0  0  0  0
 21 49  1  0  0  0  0
 21 50  1  0  0  0  0
 22 23  1  0  0  0  0
 22 51  1  0  0  0  0
 22 52  1  0  0  0  0
 23 30  1  0  0  0  0
 23 24  2  0  0  0  0
 24 25  1  0  0  0  0
 24 53  1  0  0  0  0
 25 26  2  0  0  0  0
 25 28  1  0  0  0  0
 26 27  1  0  0  0  0
 27 54  1  0  0  0  0
 28 29  1  0  0  0  0
 28 55  1  0  0  0  0
 28 56  1  0  0  0  0
 29 30  1  0  0  0  0
 29 57  1  0  0  0  0
 29 58  1  0  0  0  0
 30 31  1  1  0  0  0
M  END
$$$$
