ZINC19632713
 OpenBabel08292219463D

 56 57  0  0  1  0  0  0  0  0999 V2000
    0.1285    1.4840    0.3387 C   0  0  0  0  0  0  0  0  0  0  0  0
    0.0738   -0.0117    0.1625 C   0  0  0  0  0  0  0  0  0  0  0  0
   -1.1175   -0.6339    0.1355 C   0  0  0  0  0  0  0  0  0  0  0  0
   -1.2202   -2.1217   -0.0461 C   0  0  2  0  0  0  0  0  0  0  0  0
   -1.9580   -2.5183    0.6514 H   0  0  0  0  0  0  0  0  0  0  0  0
    0.1054   -2.7814    0.2079 C   0  0  0  0  0  0  0  0  0  0  0  0
    1.2476   -2.0731    0.2320 C   0  0  0  0  0  0  0  0  0  0  0  0
    1.2371   -0.7191    0.0265 N   0  0  0  0  0  0  0  0  0  0  0  0
    2.5557   -2.7784    0.4824 C   0  0  0  0  0  0  0  0  0  0  0  0
    0.1526   -4.1777    0.4268 C   0  0  0  0  0  0  0  0  0  0  0  0
   -0.2267   -4.6406    1.4863 O   0  0  0  0  0  0  0  0  0  0  0  0
    0.6182   -4.9968   -0.5394 O   0  0  0  0  0  0  0  0  0  0  0  0
    0.6374   -6.3961   -0.2500 C   0  0  0  0  0  0  0  0  0  0  0  0
   -0.6897   -7.0242   -0.6804 C   0  0  0  0  0  0  0  0  0  0  0  0
    1.7864   -7.0589   -1.0125 C   0  0  0  0  0  0  0  0  0  0  0  0
   -1.6600   -2.4202   -1.4563 C   0  0  0  0  0  0  0  0  0  0  0  0
   -0.8851   -2.0071   -2.5241 C   0  0  0  0  0  0  0  0  0  0  0  0
   -1.2884   -2.2809   -3.8174 C   0  0  0  0  0  0  0  0  0  0  0  0
   -2.4665   -2.9683   -4.0433 C   0  0  0  0  0  0  0  0  0  0  0  0
   -3.2407   -3.3821   -2.9757 C   0  0  0  0  0  0  0  0  0  0  0  0
   -2.8351   -3.1119   -1.6819 C   0  0  0  0  0  0  0  0  0  0  0  0
   -4.5023   -4.1176   -3.2175 N   0  0  0  0  0  4  0  0  0  0  0  0
   -4.8555   -4.3563   -4.3488 O   0  0  0  0  0  0  0  0  0  0  0  0
   -5.1795   -4.4795   -2.2837 O   0  5  0  0  0  0  0  0  0  0  0  0
   -2.2995    0.1285    0.2816 C   0  0  0  0  0  0  0  0  0  0  0  0
   -2.2314    1.3344    0.4299 O   0  0  0  0  0  0  0  0  0  0  0  0
   -3.5031   -0.4813    0.2567 O   0  0  0  0  0  0  0  0  0  0  0  0
   -4.6550    0.3503    0.4102 C   0  0  0  0  0  0  0  0  0  0  0  0
   -5.9176   -0.5122    0.3561 C   0  0  0  0  0  0  0  0  0  0  0  0
   -5.9382   -1.3974    1.4778 O   0  0  0  0  0  0  0  0  0  0  0  0
   -7.0825   -2.2521    1.5227 C   0  0  0  0  0  0  0  0  0  0  0  0
    1.1677    1.8128    0.3319 H   0  0  0  0  0  0  0  0  0  0  0  0
   -0.4104    1.9658   -0.4770 H   0  0  0  0  0  0  0  0  0  0  0  0
   -0.3321    1.7550    1.2887 H   0  0  0  0  0  0  0  0  0  0  0  0
    2.0569   -0.2589   -0.2124 H   0  0  0  0  0  0  0  0  0  0  0  0
    2.9634   -3.1344   -0.4637 H   0  0  0  0  0  0  0  0  0  0  0  0
    3.2595   -2.0856    0.9437 H   0  0  0  0  0  0  0  0  0  0  0  0
    2.3901   -3.6253    1.1483 H   0  0  0  0  0  0  0  0  0  0  0  0
    0.7789   -6.5438    0.8207 H   0  0  0  0  0  0  0  0  0  0  0  0
   -1.5082   -6.5520   -0.1371 H   0  0  0  0  0  0  0  0  0  0  0  0
   -0.8312   -6.8765   -1.7510 H   0  0  0  0  0  0  0  0  0  0  0  0
   -0.6750   -8.0915   -0.4596 H   0  0  0  0  0  0  0  0  0  0  0  0
    2.7318   -6.6114   -0.7059 H   0  0  0  0  0  0  0  0  0  0  0  0
    1.8010   -8.1262   -0.7918 H   0  0  0  0  0  0  0  0  0  0  0  0
    1.6448   -6.9112   -2.0831 H   0  0  0  0  0  0  0  0  0  0  0  0
    0.0352   -1.4702   -2.3477 H   0  0  0  0  0  0  0  0  0  0  0  0
   -0.6834   -1.9576   -4.6516 H   0  0  0  0  0  0  0  0  0  0  0  0
   -2.7820   -3.1817   -5.0539 H   0  0  0  0  0  0  0  0  0  0  0  0
   -3.4382   -3.4385   -0.8476 H   0  0  0  0  0  0  0  0  0  0  0  0
   -4.6069    0.8641    1.3703 H   0  0  0  0  0  0  0  0  0  0  0  0
   -4.6824    1.0853   -0.3942 H   0  0  0  0  0  0  0  0  0  0  0  0
   -6.7978    0.1300    0.3840 H   0  0  0  0  0  0  0  0  0  0  0  0
   -5.9211   -1.0937   -0.5658 H   0  0  0  0  0  0  0  0  0  0  0  0
   -7.0233   -2.8926    2.4027 H   0  0  0  0  0  0  0  0  0  0  0  0
   -7.9869   -1.6459    1.5748 H   0  0  0  0  0  0  0  0  0  0  0  0
   -7.1102   -2.8697    0.6250 H   0  0  0  0  0  0  0  0  0  0  0  0
  1  2  1  0  0  0  0
  1 32  1  0  0  0  0
  1 33  1  0  0  0  0
  1 34  1  0  0  0  0
  2  8  1  0  0  0  0
  2  3  2  0  0  0  0
  3  4  1  0  0  0  0
  3 25  1  0  0  0  0
  4  5  1  1  0  0  0
  4  6  1  0  0  0  0
  4 16  1  0  0  0  0
  6  7  2  0  0  0  0
  6 10  1  0  0  0  0
  7  8  1  0  0  0  0
  7  9  1  0  0  0  0
  8 35  1  0  0  0  0
  9 36  1  0  0  0  0
  9 37  1  0  0  0  0
  9 38  1  0  0  0  0
 10 11  2  0  0  0  0
 10 12  1  0  0  0  0
 12 13  1  0  0  0  0
 13 14  1  0  0  0  0
 13 15  1  0  0  0  0
 13 39  1  0  0  0  0
 14 40  1  0  0  0  0
 14 41  1  0  0  0  0
 14 42  1  0  0  0  0
 15 43  1  0  0  0  0
 15 44  1  0  0  0  0
 15 45  1  0  0  0  0
 16 21  2  0  0  0  0
 16 17  1  0  0  0  0
 17 18  2  0  0  0  0
 17 46  1  0  0  0  0
 18 19  1  0  0  0  0
 18 47  1  0  0  0  0
 19 20  2  0  0  0  0
 19 48  1  0  0  0  0
 20 21  1  0  0  0  0
 20 22  1  0  0  0  0
 21 49  1  0  0  0  0
 22 23  2  0  0  0  0
 22 24  1  0  0  0  0
 25 26  2  0  0  0  0
 25 27  1  0  0  0  0
 27 28  1  0  0  0  0
 28 29  1  0  0  0  0
 28 50  1  0  0  0  0
 28 51  1  0  0  0  0
 29 30  1  0  0  0  0
 29 52  1  0  0  0  0
 29 53  1  0  0  0  0
 30 31  1  0  0  0  0
 31 54  1  0  0  0  0
 31 55  1  0  0  0  0
 31 56  1  0  0  0  0
M  CHG  1  24  -1
M  END
$$$$
