ZINC28248877
 OpenBabel08292219463D

 50 52  0  0  0  0  0  0  0  0999 V2000
    1.2905    2.7919    1.9965 C   0  0  0  0  0  0  0  0  0  0  0  0
    0.1164    1.8269    2.1725 C   0  0  0  0  0  0  0  0  0  0  0  0
   -0.7259    1.8559    0.9693 N   0  3  0  0  0  0  0  0  0  0  0  0
   -1.3266    3.1829    0.7790 C   0  0  0  0  0  0  0  0  0  0  0  0
   -2.3013    3.4703    1.9228 C   0  0  0  0  0  0  0  0  0  0  0  0
    0.0376    1.4485   -0.2177 C   0  0  0  0  0  0  0  0  0  0  0  0
    0.4359   -0.0230   -0.0876 C   0  0  0  0  0  0  0  0  0  0  0  0
    1.1974   -0.4293   -1.2714 N   0  0  0  0  0  4  0  0  0  0  0  0
    1.6696   -1.7315   -1.3804 C   0  0  0  0  0  0  0  0  0  0  0  0
    1.5492   -2.6038   -0.3133 C   0  0  0  0  0  0  0  0  0  0  0  0
    2.0114   -3.9058   -0.3976 C   0  0  0  0  0  0  0  0  0  0  0  0
    2.6065   -4.3563   -1.5634 C   0  0  0  0  0  0  0  0  0  0  0  0
    2.7344   -3.4999   -2.6349 C   0  0  0  0  0  0  0  0  0  0  0  0
    2.2683   -2.1685   -2.5832 C   0  0  0  0  0  0  0  0  0  0  0  0
    2.4013   -1.2522   -3.7021 C   0  0  0  0  0  0  0  0  0  0  0  0
    1.9604   -0.1317   -3.5166 O   0  0  0  0  0  0  0  0  0  0  0  0
    2.9826   -1.4866   -5.0173 C   0  0  0  0  0  0  0  0  0  0  0  0
    3.0062   -0.4530   -5.9691 C   0  0  0  0  0  0  0  0  0  0  0  0
    3.5487   -0.6673   -7.2016 C   0  0  0  0  0  0  0  0  0  0  0  0
    4.0885   -1.8977   -7.5499 C   0  0  0  0  0  0  0  0  0  0  0  0
    4.0810   -2.9364   -6.6382 C   0  0  0  0  0  0  0  0  0  0  0  0
    3.5348   -2.7298   -5.3883 C   0  0  0  0  0  0  0  0  0  0  0  0
    3.4866   -4.0099   -4.1598 S   0  0  0  0  0  0  0  0  0  0  0  0
    3.1112   -5.7730   -1.6596 C   0  0  0  0  0  0  0  0  0  0  0  0
    1.9212    2.7702    2.8975 H   0  0  0  0  0  0  0  0  0  0  0  0
    0.9072    3.8113    1.8417 H   0  0  0  0  0  0  0  0  0  0  0  0
    1.8872    2.4880    1.1238 H   0  0  0  0  0  0  0  0  0  0  0  0
    0.4997    0.8075    2.3273 H   0  0  0  0  0  0  0  0  0  0  0  0
   -0.4803    2.1307    3.0452 H   0  0  0  0  0  0  0  0  0  0  0  0
   -0.5346    3.9462    0.7716 H   0  0  0  0  0  0  0  0  0  0  0  0
   -1.8676    3.2066   -0.1785 H   0  0  0  0  0  0  0  0  0  0  0  0
   -2.7511    4.4640    1.7803 H   0  0  0  0  0  0  0  0  0  0  0  0
   -1.7603    3.4466    2.8803 H   0  0  0  0  0  0  0  0  0  0  0  0
   -3.0933    2.7069    1.9302 H   0  0  0  0  0  0  0  0  0  0  0  0
   -0.5825    1.5825   -1.1163 H   0  0  0  0  0  0  0  0  0  0  0  0
    0.9431    2.0674   -0.3015 H   0  0  0  0  0  0  0  0  0  0  0  0
    1.0560   -0.1569    0.8110 H   0  0  0  0  0  0  0  0  0  0  0  0
   -0.4696   -0.6420   -0.0038 H   0  0  0  0  0  0  0  0  0  0  0  0
    1.3953    0.2965   -2.0739 H   0  0  0  0  0  0  0  0  0  0  0  0
    1.0862   -2.2630    0.6010 H   0  0  0  0  0  0  0  0  0  0  0  0
    1.9074   -4.5709    0.4470 H   0  0  0  0  0  0  0  0  0  0  0  0
    2.5934    0.5143   -5.7234 H   0  0  0  0  0  0  0  0  0  0  0  0
    3.5591    0.1375   -7.9218 H   0  0  0  0  0  0  0  0  0  0  0  0
    4.5134   -2.0433   -8.5321 H   0  0  0  0  0  0  0  0  0  0  0  0
    4.4981   -3.8974   -6.9007 H   0  0  0  0  0  0  0  0  0  0  0  0
    3.5476   -5.9399   -2.6554 H   0  0  0  0  0  0  0  0  0  0  0  0
    2.2757   -6.4713   -1.5036 H   0  0  0  0  0  0  0  0  0  0  0  0
    3.8787   -5.9418   -0.8899 H   0  0  0  0  0  0  0  0  0  0  0  0
    2.0221    0.6227   -4.3147 H   0  0  0  0  0  0  0  0  0  0  0  0
   -1.5424    1.1324    1.1107 H   0  0  0  0  0  0  0  0  0  0  0  0
  1  2  1  0  0  0  0
  1 25  1  0  0  0  0
  1 26  1  0  0  0  0
  1 27  1  0  0  0  0
  2  3  1  0  0  0  0
  2 28  1  0  0  0  0
  2 29  1  0  0  0  0
  3  4  1  0  0  0  0
  3  6  1  0  0  0  0
  3 50  1  0  0  0  0
  4  5  1  0  0  0  0
  4 30  1  0  0  0  0
  4 31  1  0  0  0  0
  5 32  1  0  0  0  0
  5 33  1  0  0  0  0
  5 34  1  0  0  0  0
  6  7  1  0  0  0  0
  6 35  1  0  0  0  0
  6 36  1  0  0  0  0
  7  8  1  0  0  0  0
  7 37  1  0  0  0  0
  7 38  1  0  0  0  0
  8  9  2  0  0  0  0
  8 39  1  0  0  0  0
  9 14  1  0  0  0  0
  9 10  1  0  0  0  0
 10 11  2  0  0  0  0
 10 40  1  0  0  0  0
 11 12  1  0  0  0  0
 11 41  1  0  0  0  0
 12 13  2  0  0  0  0
 12 24  1  0  0  0  0
 13 23  1  0  0  0  0
 13 14  1  0  0  0  0
 14 15  2  0  0  0  0
 15 16  1  0  0  0  0
 15 17  1  0  0  0  0
 16 49  1  0  0  0  0
 17 22  2  0  0  0  0
 17 18  1  0  0  0  0
 18 19  2  0  0  0  0
 18 42  1  0  0  0  0
 19 20  1  0  0  0  0
 19 43  1  0  0  0  0
 20 21  2  0  0  0  0
 20 44  1  0  0  0  0
 21 22  1  0  0  0  0
 21 45  1  0  0  0  0
 22 23  1  0  0  0  0
 24 46  1  0  0  0  0
 24 47  1  0  0  0  0
 24 48  1  0  0  0  0
M  CHG  1   3   1
M  END
$$$$
