ZINC03830206
 OpenBabel08292219463D

 45 47  0  0  1  0  0  0  0  0999 V2000
   -2.5026   -5.6785    2.9177 C   0  0  0  0  0  0  0  0  0  0  0  0
   -2.8215   -4.2189    2.5877 C   0  0  0  0  0  0  0  0  0  0  0  0
   -4.2930   -4.0474    2.1192 C   0  0  1  0  0  0  0  0  0  0  0  0
   -4.5920   -3.0087    2.2597 H   0  0  0  0  0  0  0  0  0  0  0  0
   -4.4588   -4.4062    0.7065 N   0  0  0  0  0  0  0  0  0  0  0  0
   -3.2565   -4.2589   -0.1407 C   0  0  2  0  0  0  0  0  0  0  0  0
   -2.9764   -5.1053   -0.7679 H   0  0  0  0  0  0  0  0  0  0  0  0
   -1.9741   -3.6715    1.0380 S   0  0  0  0  0  0  0  0  0  0  0  0
   -4.0519   -3.1451   -0.8124 C   0  0  1  0  0  0  0  0  0  0  0  0
   -4.1596   -3.2785   -1.8889 H   0  0  0  0  0  0  0  0  0  0  0  0
   -5.2631   -3.5894   -0.0301 C   0  0  0  0  0  0  0  0  0  0  0  0
   -6.4476   -3.3298   -0.0488 O   0  0  0  0  0  0  0  0  0  0  0  0
   -3.1678   -0.9078   -1.2957 C   0  0  0  0  0  0  0  0  0  0  0  0
   -2.7569    0.3196   -0.8466 N   0  0  0  0  0  0  0  0  0  0  0  0
   -2.2904    1.3143   -1.7688 C   0  0  0  0  0  0  0  0  0  0  0  0
   -0.7779    1.2786   -2.1012 C   0  0  0  0  0  0  0  0  0  0  0  0
    0.0440    1.0083   -0.8171 C   0  0  0  0  0  0  0  0  0  0  0  0
   -0.5444    1.7383    0.3553 C   0  0  0  0  0  0  0  0  0  0  0  0
   -1.4023    0.7100    1.0845 C   0  0  0  0  0  0  0  0  0  0  0  0
   -2.7871    0.6450    0.6190 C   0  0  0  0  0  0  0  0  0  0  0  0
   -5.1817   -4.9293    2.9580 C   0  0  0  0  0  0  0  0  0  0  0  0
   -5.6122   -5.9619    2.5016 O   0  0  0  0  0  0  0  0  0  0  0  0
   -2.4931   -3.2974    3.7640 C   0  0  0  0  0  0  0  0  0  0  0  0
   -1.4304   -5.7885    3.0795 H   0  0  0  0  0  0  0  0  0  0  0  0
   -3.0384   -5.9724    3.8203 H   0  0  0  0  0  0  0  0  0  0  0  0
   -2.8120   -6.3145    2.0882 H   0  0  0  0  0  0  0  0  0  0  0  0
   -3.1421   -1.1328   -2.3517 H   0  0  0  0  0  0  0  0  0  0  0  0
   -2.5246    2.2958   -1.3569 H   0  0  0  0  0  0  0  0  0  0  0  0
   -2.8456    1.2012   -2.7000 H   0  0  0  0  0  0  0  0  0  0  0  0
   -0.4788    2.2365   -2.5267 H   0  0  0  0  0  0  0  0  0  0  0  0
   -0.5877    0.4864   -2.8254 H   0  0  0  0  0  0  0  0  0  0  0  0
    0.0440   -0.0619   -0.6100 H   0  0  0  0  0  0  0  0  0  0  0  0
    1.0696    1.3438   -0.9706 H   0  0  0  0  0  0  0  0  0  0  0  0
    0.2480    2.0998    1.0109 H   0  0  0  0  0  0  0  0  0  0  0  0
   -1.1603    2.5694    0.0120 H   0  0  0  0  0  0  0  0  0  0  0  0
   -1.4053    0.9520    2.1473 H   0  0  0  0  0  0  0  0  0  0  0  0
   -0.9473   -0.2720    0.9555 H   0  0  0  0  0  0  0  0  0  0  0  0
   -3.2753    1.6072    0.7744 H   0  0  0  0  0  0  0  0  0  0  0  0
   -3.3233   -0.1345    1.1603 H   0  0  0  0  0  0  0  0  0  0  0  0
   -2.7959   -2.2784    3.5227 H   0  0  0  0  0  0  0  0  0  0  0  0
   -3.0290   -3.6352    4.6509 H   0  0  0  0  0  0  0  0  0  0  0  0
   -1.4205   -3.3218    3.9563 H   0  0  0  0  0  0  0  0  0  0  0  0
   -3.5873   -1.7802   -0.3864 N   0  0  0  0  0  4  0  0  0  0  0  0
   -3.5944   -1.5225    0.6074 H   0  0  0  0  0  0  0  0  0  0  0  0
   -5.4952   -4.5676    4.2120 O   0  0  0  0  0  1  0  0  0  0  0  0
  1  2  1  0  0  0  0
  1 24  1  0  0  0  0
  1 25  1  0  0  0  0
  1 26  1  0  0  0  0
  2  8  1  0  0  0  0
  2  3  1  0  0  0  0
  2 23  1  0  0  0  0
  3  4  1  1  0  0  0
  3  5  1  0  0  0  0
  3 21  1  0  0  0  0
  5 11  1  0  0  0  0
  5  6  1  0  0  0  0
  6  7  1  6  0  0  0
  6  8  1  0  0  0  0
  6  9  1  0  0  0  0
  9 10  1  6  0  0  0
  9 11  1  0  0  0  0
  9 43  1  0  0  0  0
 11 12  2  0  0  0  0
 13 14  1  0  0  0  0
 13 27  1  0  0  0  0
 13 43  2  0  0  0  0
 14 20  1  0  0  0  0
 14 15  1  0  0  0  0
 15 16  1  0  0  0  0
 15 28  1  0  0  0  0
 15 29  1  0  0  0  0
 16 17  1  0  0  0  0
 16 30  1  0  0  0  0
 16 31  1  0  0  0  0
 17 18  1  0  0  0  0
 17 32  1  0  0  0  0
 17 33  1  0  0  0  0
 18 19  1  0  0  0  0
 18 34  1  0  0  0  0
 18 35  1  0  0  0  0
 19 20  1  0  0  0  0
 19 36  1  0  0  0  0
 19 37  1  0  0  0  0
 20 38  1  0  0  0  0
 20 39  1  0  0  0  0
 21 22  2  0  0  0  0
 21 45  1  0  0  0  0
 23 40  1  0  0  0  0
 23 41  1  0  0  0  0
 23 42  1  0  0  0  0
 43 44  1  0  0  0  0
M  END
$$$$
