ZINC13473744
 OpenBabel08292219463D

 32 33  0  0  0  0  0  0  0  0999 V2000
    0.3839    0.6766   -1.0302 C   0  0  0  0  0  0  0  0  0  0  0  0
    1.5893    1.3440   -1.0817 C   0  0  0  0  0  0  0  0  0  0  0  0
    2.4056    1.3945    0.0536 C   0  0  0  0  0  0  0  0  0  0  0  0
    1.9904    0.7659    1.2332 C   0  0  0  0  0  0  0  0  0  0  0  0
    0.7825    0.1029    1.2680 C   0  0  0  0  0  0  0  0  0  0  0  0
   -0.0194    0.0577    0.1402 C   0  0  0  0  0  0  0  0  0  0  0  0
   -1.3387   -0.6691    0.1874 C   0  0  0  0  0  0  0  0  0  0  0  0
   -1.9659   -0.5787   -1.0598 F   0  0  0  0  0  0  0  0  0  0  0  0
   -1.1191   -2.0143    0.5026 F   0  0  0  0  0  0  0  0  0  0  0  0
   -2.1560   -0.0889    1.1635 F   0  0  0  0  0  0  0  0  0  0  0  0
    2.8463    0.8127    2.4400 N   0  0  0  0  0  4  0  0  0  0  0  0
    2.5436    0.1740    3.4208 O   0  0  0  0  0  0  0  0  0  0  0  0
    3.8480    1.4895    2.4447 O   0  5  0  0  0  0  0  0  0  0  0  0
    3.6935    2.1039    0.0075 C   0  0  0  0  0  0  0  0  0  0  0  0
    3.7200    3.4421   -0.1374 O   0  5  0  0  0  0  0  0  0  0  0  0
    4.8905    1.3881    0.1142 C   0  0  0  0  0  0  0  0  0  0  0  0
    4.8641   -0.0264    0.1012 C   0  0  0  0  0  0  0  0  0  0  0  0
    3.8040   -0.6095   -0.0001 O   0  0  0  0  0  0  0  0  0  0  0  0
    6.1441   -0.8131    0.2118 C   0  0  0  0  0  0  0  0  0  0  0  0
    7.1621   -0.0154    1.0305 C   0  0  0  0  0  0  0  0  0  0  0  0
    7.4142    1.3309    0.3473 C   0  0  0  0  0  0  0  0  0  0  0  0
    6.1159    2.0860    0.2284 C   0  0  0  0  0  0  0  0  0  0  0  0
    6.1210    3.3000    0.2348 O   0  0  0  0  0  0  0  0  0  0  0  0
   -0.2494    0.6405   -1.9043 H   0  0  0  0  0  0  0  0  0  0  0  0
    1.9027    1.8262   -1.9958 H   0  0  0  0  0  0  0  0  0  0  0  0
    0.4608   -0.3829    2.1773 H   0  0  0  0  0  0  0  0  0  0  0  0
    5.9450   -1.7639    0.7063 H   0  0  0  0  0  0  0  0  0  0  0  0
    6.5444   -0.9983   -0.7850 H   0  0  0  0  0  0  0  0  0  0  0  0
    6.7706    0.1531    2.0338 H   0  0  0  0  0  0  0  0  0  0  0  0
    8.0966   -0.5729    1.0925 H   0  0  0  0  0  0  0  0  0  0  0  0
    8.1222    1.9116    0.9384 H   0  0  0  0  0  0  0  0  0  0  0  0
    7.8241    1.1620   -0.6485 H   0  0  0  0  0  0  0  0  0  0  0  0
  1  6  2  0  0  0  0
  1  2  1  0  0  0  0
  1 24  1  0  0  0  0
  2  3  2  0  0  0  0
  2 25  1  0  0  0  0
  3  4  1  0  0  0  0
  3 14  1  0  0  0  0
  4  5  2  0  0  0  0
  4 11  1  0  0  0  0
  5  6  1  0  0  0  0
  5 26  1  0  0  0  0
  6  7  1  0  0  0  0
  7  8  1  0  0  0  0
  7  9  1  0  0  0  0
  7 10  1  0  0  0  0
 11 12  2  0  0  0  0
 11 13  1  0  0  0  0
 14 15  1  0  0  0  0
 14 16  2  0  0  0  0
 16 22  1  0  0  0  0
 16 17  1  0  0  0  0
 17 18  2  0  0  0  0
 17 19  1  0  0  0  0
 19 20  1  0  0  0  0
 19 27  1  0  0  0  0
 19 28  1  0  0  0  0
 20 21  1  0  0  0  0
 20 29  1  0  0  0  0
 20 30  1  0  0  0  0
 21 22  1  0  0  0  0
 21 31  1  0  0  0  0
 21 32  1  0  0  0  0
 22 23  2  0  0  0  0
M  CHG  2  13  -1  15  -1
M  END
$$$$
