ZINC03876174
 OpenBabel08292219463D

 36 38  0  0  1  0  0  0  0  0999 V2000
   -0.0015    1.8898   -1.0980 C   0  0  0  0  0  0  0  0  0  0  0  0
    0.2902    0.6173   -0.3002 C   0  0  0  0  0  0  0  0  0  0  0  0
    0.7182   -0.4975   -1.2568 C   0  0  2  0  0  0  0  0  0  0  0  0
   -0.0069   -0.5798   -2.0664 H   0  0  0  0  0  0  0  0  0  0  0  0
    0.7855   -1.8036   -0.5080 C   0  0  0  0  0  0  0  0  0  0  0  0
    1.1100   -1.8140    0.8357 C   0  0  0  0  0  0  0  0  0  0  0  0
    1.1717   -3.0121    1.5225 C   0  0  0  0  0  0  0  0  0  0  0  0
    0.9086   -4.1997    0.8657 C   0  0  0  0  0  0  0  0  0  0  0  0
    0.5833   -4.1891   -0.4778 C   0  0  0  0  0  0  0  0  0  0  0  0
    0.5173   -2.9907   -1.1636 C   0  0  0  0  0  0  0  0  0  0  0  0
    2.0750   -0.1756   -1.8283 C   0  0  0  0  0  0  0  0  0  0  0  0
    3.1169    0.1266   -0.9956 C   0  0  0  0  0  0  0  0  0  0  0  0
    4.4208    0.4335   -1.6038 C   0  0  0  0  0  0  0  0  0  0  0  0
    5.5277    0.7500   -0.8134 C   0  0  0  0  0  0  0  0  0  0  0  0
    6.7345    1.0319   -1.4140 C   0  0  0  0  0  0  0  0  0  0  0  0
    6.8528    1.0024   -2.7959 C   0  0  0  0  0  0  0  0  0  0  0  0
    5.7675    0.6918   -3.5878 C   0  0  0  0  0  0  0  0  0  0  0  0
    4.5414    0.4038   -3.0022 C   0  0  0  0  0  0  0  0  0  0  0  0
    3.4687    0.0963   -3.7630 O   0  0  0  0  0  0  0  0  0  0  0  0
    2.2761   -0.1903   -3.2170 C   0  0  0  0  0  0  0  0  0  0  0  0
    1.3409   -0.4662   -3.9480 O   0  0  0  0  0  0  0  0  0  0  0  0
    2.9533    0.1434    0.3469 O   0  5  0  0  0  0  0  0  0  0  0  0
    0.8965    2.1962   -1.6344 H   0  0  0  0  0  0  0  0  0  0  0  0
   -0.8025    1.6958   -1.8114 H   0  0  0  0  0  0  0  0  0  0  0  0
   -0.3064    2.6840   -0.4165 H   0  0  0  0  0  0  0  0  0  0  0  0
    1.0912    0.8113    0.4132 H   0  0  0  0  0  0  0  0  0  0  0  0
   -0.6078    0.3109    0.2362 H   0  0  0  0  0  0  0  0  0  0  0  0
    1.3156   -0.8862    1.3488 H   0  0  0  0  0  0  0  0  0  0  0  0
    1.4259   -3.0203    2.5721 H   0  0  0  0  0  0  0  0  0  0  0  0
    0.9575   -5.1357    1.4022 H   0  0  0  0  0  0  0  0  0  0  0  0
    0.3780   -5.1170   -0.9910 H   0  0  0  0  0  0  0  0  0  0  0  0
    0.2595   -2.9821   -2.2123 H   0  0  0  0  0  0  0  0  0  0  0  0
    5.4378    0.7740    0.2626 H   0  0  0  0  0  0  0  0  0  0  0  0
    7.5929    1.2775   -0.8063 H   0  0  0  0  0  0  0  0  0  0  0  0
    7.8042    1.2252   -3.2560 H   0  0  0  0  0  0  0  0  0  0  0  0
    5.8708    0.6724   -4.6627 H   0  0  0  0  0  0  0  0  0  0  0  0
  1  2  1  0  0  0  0
  1 23  1  0  0  0  0
  1 24  1  0  0  0  0
  1 25  1  0  0  0  0
  2  3  1  0  0  0  0
  2 26  1  0  0  0  0
  2 27  1  0  0  0  0
  3  4  1  6  0  0  0
  3  5  1  0  0  0  0
  3 11  1  0  0  0  0
  5 10  2  0  0  0  0
  5  6  1  0  0  0  0
  6  7  2  0  0  0  0
  6 28  1  0  0  0  0
  7  8  1  0  0  0  0
  7 29  1  0  0  0  0
  8  9  2  0  0  0  0
  8 30  1  0  0  0  0
  9 10  1  0  0  0  0
  9 31  1  0  0  0  0
 10 32  1  0  0  0  0
 11 20  1  0  0  0  0
 11 12  2  0  0  0  0
 12 13  1  0  0  0  0
 12 22  1  0  0  0  0
 13 18  2  0  0  0  0
 13 14  1  0  0  0  0
 14 15  2  0  0  0  0
 14 33  1  0  0  0  0
 15 16  1  0  0  0  0
 15 34  1  0  0  0  0
 16 17  2  0  0  0  0
 16 35  1  0  0  0  0
 17 18  1  0  0  0  0
 17 36  1  0  0  0  0
 18 19  1  0  0  0  0
 19 20  1  0  0  0  0
 20 21  2  0  0  0  0
M  CHG  1  22  -1
M  END
$$$$
