ZINC00538337
 OpenBabel08292219463D

 58 62  0  0  1  0  0  0  0  0999 V2000
   -0.0168    1.3842    0.0097 C   0  0  0  0  0  0  0  0  0  0  0  0
    1.1703    2.0901    0.0021 C   0  0  0  0  0  0  0  0  0  0  0  0
    2.3788    1.4141   -0.0135 C   0  0  0  0  0  0  0  0  0  0  0  0
    2.3997    0.0295   -0.0216 C   0  0  0  0  0  0  0  0  0  0  0  0
    1.2148   -0.6800   -0.0137 C   0  0  0  0  0  0  0  0  0  0  0  0
    0.0021   -0.0041    0.0020 C   0  0  0  0  0  0  0  0  0  0  0  0
   -1.2015   -0.7222    0.0101 N   0  0  0  0  0  0  0  0  0  0  0  0
   -2.2407   -0.5077    0.8765 C   0  0  0  0  0  0  0  0  0  0  0  0
   -3.2397   -1.3652    0.6140 C   0  0  0  0  0  0  0  0  0  0  0  0
   -2.8068   -2.1974   -0.5117 C   0  0  0  0  0  0  0  0  0  0  0  0
   -1.5194   -1.7470   -0.8569 C   0  0  0  0  0  0  0  0  0  0  0  0
   -0.8430   -2.3517   -1.9103 C   0  0  0  0  0  0  0  0  0  0  0  0
   -1.4366   -3.3808   -2.6081 C   0  0  0  0  0  0  0  0  0  0  0  0
   -2.7089   -3.8239   -2.2706 C   0  0  0  0  0  0  0  0  0  0  0  0
   -3.3935   -3.2441   -1.2250 C   0  0  0  0  0  0  0  0  0  0  0  0
   -3.4366   -5.1218   -3.1648 Cl  0  0  0  0  0  0  0  0  0  0  0  0
   -4.5571   -1.4553    1.3402 C   0  0  1  0  0  0  0  0  0  0  0  0
   -4.3063   -1.7573    2.8204 C   0  0  0  0  0  0  0  0  0  0  0  0
   -5.6422   -1.7687    3.5665 C   0  0  0  0  0  0  0  0  0  0  0  0
   -6.2909   -0.4585    3.4359 N   0  3  1  0  0  0  0  0  0  0  0  0
   -6.5994   -0.1937    2.0255 C   0  0  0  0  0  0  0  0  0  0  0  0
   -5.3003   -0.1217    1.2201 C   0  0  0  0  0  0  0  0  0  0  0  0
   -7.5345   -0.4493    4.2177 C   0  0  0  0  0  0  0  0  0  0  0  0
   -8.1476    0.9521    4.1845 C   0  0  0  0  0  0  0  0  0  0  0  0
   -9.3878    0.9612    4.9641 N   0  0  0  0  0  0  0  0  0  0  0  0
  -10.7283    0.6664    4.4362 C   0  0  0  0  0  0  0  0  0  0  0  0
  -11.6494    0.8170    5.6625 C   0  0  0  0  0  0  0  0  0  0  0  0
  -10.7301    1.1807    6.7511 N   0  0  0  0  0  0  0  0  0  0  0  0
   -9.4802    1.2337    6.2723 C   0  0  0  0  0  0  0  0  0  0  0  0
   -8.5172    1.5083    6.9620 O   0  0  0  0  0  0  0  0  0  0  0  0
    3.5389    2.1063   -0.0213 F   0  0  0  0  0  0  0  0  0  0  0  0
   -0.9590    1.9118    0.0260 H   0  0  0  0  0  0  0  0  0  0  0  0
    1.1561    3.1700    0.0080 H   0  0  0  0  0  0  0  0  0  0  0  0
    3.3432   -0.4959   -0.0345 H   0  0  0  0  0  0  0  0  0  0  0  0
    1.2315   -1.7598   -0.0203 H   0  0  0  0  0  0  0  0  0  0  0  0
   -2.2541    0.2401    1.6556 H   0  0  0  0  0  0  0  0  0  0  0  0
    0.1466   -2.0149   -2.1816 H   0  0  0  0  0  0  0  0  0  0  0  0
   -0.9074   -3.8472   -3.4259 H   0  0  0  0  0  0  0  0  0  0  0  0
   -4.3833   -3.5900   -0.9659 H   0  0  0  0  0  0  0  0  0  0  0  0
   -5.1611   -2.2499    0.9021 H   0  0  0  0  0  0  0  0  0  0  0  0
   -3.8271   -2.7315    2.9171 H   0  0  0  0  0  0  0  0  0  0  0  0
   -3.6594   -0.9891    3.2440 H   0  0  0  0  0  0  0  0  0  0  0  0
   -6.2882   -2.5373    3.1423 H   0  0  0  0  0  0  0  0  0  0  0  0
   -5.4673   -1.9836    4.6207 H   0  0  0  0  0  0  0  0  0  0  0  0
   -7.2250   -0.9960    1.6341 H   0  0  0  0  0  0  0  0  0  0  0  0
   -7.1311    0.7541    1.9420 H   0  0  0  0  0  0  0  0  0  0  0  0
   -4.6740    0.6804    1.6106 H   0  0  0  0  0  0  0  0  0  0  0  0
   -5.5315    0.0731    0.1729 H   0  0  0  0  0  0  0  0  0  0  0  0
   -8.2379   -1.1638    3.7899 H   0  0  0  0  0  0  0  0  0  0  0  0
   -7.3173   -0.7265    5.2492 H   0  0  0  0  0  0  0  0  0  0  0  0
   -7.4442    1.6665    4.6123 H   0  0  0  0  0  0  0  0  0  0  0  0
   -8.3648    1.2293    3.1530 H   0  0  0  0  0  0  0  0  0  0  0  0
  -11.0011    1.3839    3.6624 H   0  0  0  0  0  0  0  0  0  0  0  0
  -10.7713   -0.3513    4.0481 H   0  0  0  0  0  0  0  0  0  0  0  0
  -12.3795    1.6093    5.4975 H   0  0  0  0  0  0  0  0  0  0  0  0
  -12.1498   -0.1259    5.8832 H   0  0  0  0  0  0  0  0  0  0  0  0
  -10.9875    1.3510    7.6707 H   0  0  0  0  0  0  0  0  0  0  0  0
   -5.6719    0.2583    3.7840 H   0  0  0  0  0  0  0  0  0  0  0  0
  1  6  2  0  0  0  0
  1  2  1  0  0  0  0
  1 32  1  0  0  0  0
  2  3  2  0  0  0  0
  2 33  1  0  0  0  0
  3  4  1  0  0  0  0
  3 31  1  0  0  0  0
  4  5  2  0  0  0  0
  4 34  1  0  0  0  0
  5  6  1  0  0  0  0
  5 35  1  0  0  0  0
  6  7  1  0  0  0  0
  7 11  1  0  0  0  0
  7  8  1  0  0  0  0
  8  9  2  0  0  0  0
  8 36  1  0  0  0  0
  9 10  1  0  0  0  0
  9 17  1  0  0  0  0
 10 15  2  0  0  0  0
 10 11  1  0  0  0  0
 11 12  2  0  0  0  0
 12 13  1  0  0  0  0
 12 37  1  0  0  0  0
 13 14  2  0  0  0  0
 13 38  1  0  0  0  0
 14 15  1  0  0  0  0
 14 16  1  0  0  0  0
 15 39  1  0  0  0  0
 17 22  1  0  0  0  0
 17 18  1  0  0  0  0
 17 40  1  6  0  0  0
 18 19  1  0  0  0  0
 18 41  1  0  0  0  0
 18 42  1  0  0  0  0
 19 20  1  0  0  0  0
 19 43  1  0  0  0  0
 19 44  1  0  0  0  0
 20 21  1  0  0  0  0
 20 23  1  0  0  0  0
 20 58  1  1  0  0  0
 21 22  1  0  0  0  0
 21 45  1  0  0  0  0
 21 46  1  0  0  0  0
 22 47  1  0  0  0  0
 22 48  1  0  0  0  0
 23 24  1  0  0  0  0
 23 49  1  0  0  0  0
 23 50  1  0  0  0  0
 24 25  1  0  0  0  0
 24 51  1  0  0  0  0
 24 52  1  0  0  0  0
 25 29  1  0  0  0  0
 25 26  1  0  0  0  0
 26 27  1  0  0  0  0
 26 53  1  0  0  0  0
 26 54  1  0  0  0  0
 27 28  1  0  0  0  0
 27 55  1  0  0  0  0
 27 56  1  0  0  0  0
 28 29  1  0  0  0  0
 28 57  1  0  0  0  0
 29 30  2  0  0  0  0
M  CHG  1  20   1
M  END
$$$$
