ZINC00598852
 OpenBabel08292219463D

 51 53  0  0  0  0  0  0  0  0999 V2000
    0.5429    1.5070    0.0182 C   0  0  0  0  0  0  0  0  0  0  0  0
    0.5454    0.0000    0.0096 C   0  0  0  0  0  3  0  0  0  0  0  0
    0.6980   -0.6802   -1.1634 C   0  0  0  0  0  0  0  0  0  0  0  0
    0.7027   -2.0714   -1.1869 C   0  0  0  0  0  0  0  0  0  0  0  0
    0.5547   -2.7939   -0.0399 C   0  0  0  0  0  0  0  0  0  0  0  0
    0.3958   -2.1272    1.1822 C   0  0  0  0  0  0  0  0  0  0  0  0
    0.3970   -0.7113    1.2046 C   0  0  0  0  0  0  0  0  0  0  0  0
    0.2398   -0.0587    2.4533 C   0  0  0  0  0  0  0  0  0  0  0  0
    0.1047   -0.8049    3.5395 N   0  0  0  0  0  0  0  0  0  0  0  0
    0.1146   -2.1336    3.4740 C   0  0  0  0  0  0  0  0  0  0  0  0
    0.2462   -2.7915    2.3381 N   0  0  0  0  0  0  0  0  0  0  0  0
   -0.0306   -2.8556    4.6447 N   0  0  0  0  0  0  0  0  0  0  0  0
    0.2283    1.3172    2.5352 N   0  0  0  0  0  0  0  0  0  0  0  0
    0.8631    0.0856   -2.4507 C   0  0  0  0  0  0  0  0  0  0  0  0
    2.2497    0.5425   -2.5728 N   0  0  0  0  0  0  0  0  0  0  0  0
    2.6471    1.2801   -3.6932 C   0  0  0  0  0  0  0  0  0  0  0  0
    1.7259    1.5838   -4.6864 C   0  0  0  0  0  0  0  0  0  0  0  0
    2.1190    2.3146   -5.7968 C   0  0  0  0  0  0  0  0  0  0  0  0
    3.4355    2.7433   -5.9156 C   0  0  0  0  0  0  0  0  0  0  0  0
    4.3571    2.4389   -4.9210 C   0  0  0  0  0  0  0  0  0  0  0  0
    3.9612    1.7128   -3.8085 C   0  0  0  0  0  0  0  0  0  0  0  0
    5.6456    2.8580   -5.0364 O   0  0  0  0  0  0  0  0  0  0  0  0
    6.5387    2.5092   -3.9768 C   0  0  0  0  0  0  0  0  0  0  0  0
    3.8225    3.4609   -7.0064 O   0  0  0  0  0  0  0  0  0  0  0  0
    3.7098    4.8829   -6.9209 C   0  0  0  0  0  0  0  0  0  0  0  0
    1.2165    2.6116   -6.7698 O   0  0  0  0  0  0  0  0  0  0  0  0
   -0.1189    2.1387   -6.5823 C   0  0  0  0  0  0  0  0  0  0  0  0
    1.5373    1.8705    0.2774 H   0  0  0  0  0  0  0  0  0  0  0  0
    0.2676    1.8755   -0.9700 H   0  0  0  0  0  0  0  0  0  0  0  0
   -0.1779    1.8650    0.7533 H   0  0  0  0  0  0  0  0  0  0  0  0
    0.8251   -2.5869   -2.1281 H   0  0  0  0  0  0  0  0  0  0  0  0
    0.5597   -3.8734   -0.0733 H   0  0  0  0  0  0  0  0  0  0  0  0
   -0.1367   -2.3923    5.4903 H   0  0  0  0  0  0  0  0  0  0  0  0
   -0.0263   -3.8253    4.6202 H   0  0  0  0  0  0  0  0  0  0  0  0
   -0.4142    1.7635    3.1087 H   0  0  0  0  0  0  0  0  0  0  0  0
    0.8626    1.8391    2.0193 H   0  0  0  0  0  0  0  0  0  0  0  0
    0.6185   -0.5620   -3.2927 H   0  0  0  0  0  0  0  0  0  0  0  0
    0.1955    0.9472   -2.4491 H   0  0  0  0  0  0  0  0  0  0  0  0
    2.8922    0.3335   -1.8768 H   0  0  0  0  0  0  0  0  0  0  0  0
    0.7028    1.2503   -4.5941 H   0  0  0  0  0  0  0  0  0  0  0  0
    4.6763    1.4800   -3.0333 H   0  0  0  0  0  0  0  0  0  0  0  0
    7.5314    2.9038   -4.1935 H   0  0  0  0  0  0  0  0  0  0  0  0
    6.1753    2.9338   -3.0409 H   0  0  0  0  0  0  0  0  0  0  0  0
    6.5905    1.4241   -3.8876 H   0  0  0  0  0  0  0  0  0  0  0  0
    4.3243    5.2472   -6.0976 H   0  0  0  0  0  0  0  0  0  0  0  0
    4.0502    5.3312   -7.8543 H   0  0  0  0  0  0  0  0  0  0  0  0
    2.6690    5.1550   -6.7455 H   0  0  0  0  0  0  0  0  0  0  0  0
   -0.5282    2.5607   -5.6645 H   0  0  0  0  0  0  0  0  0  0  0  0
   -0.7344    2.4437   -7.4286 H   0  0  0  0  0  0  0  0  0  0  0  0
   -0.1125    1.0511   -6.5109 H   0  0  0  0  0  0  0  0  0  0  0  0
    0.2468   -3.7615    2.3402 H   0  0  0  0  0  0  0  0  0  0  0  0
  1  2  1  0  0  0  0
  1 28  1  0  0  0  0
  1 29  1  0  0  0  0
  1 30  1  0  0  0  0
  2  7  1  0  0  0  0
  2  3  1  0  0  0  0
  3  4  2  0  0  0  0
  3 14  1  0  0  0  0
  4  5  1  0  0  0  0
  4 31  1  0  0  0  0
  5  6  2  0  0  0  0
  5 32  1  0  0  0  0
  6 11  1  0  0  0  0
  6  7  1  0  0  0  0
  7  8  2  0  0  0  0
  8  9  1  0  0  0  0
  8 13  1  0  0  0  0
  9 10  2  0  0  0  0
 10 11  1  0  0  0  0
 10 12  1  0  0  0  0
 11 51  1  0  0  0  0
 12 33  1  0  0  0  0
 12 34  1  0  0  0  0
 13 35  1  0  0  0  0
 13 36  1  0  0  0  0
 14 15  1  0  0  0  0
 14 37  1  0  0  0  0
 14 38  1  0  0  0  0
 15 16  1  0  0  0  0
 15 39  1  0  0  0  0
 16 21  2  0  0  0  0
 16 17  1  0  0  0  0
 17 18  2  0  0  0  0
 17 40  1  0  0  0  0
 18 19  1  0  0  0  0
 18 26  1  0  0  0  0
 19 20  2  0  0  0  0
 19 24  1  0  0  0  0
 20 21  1  0  0  0  0
 20 22  1  0  0  0  0
 21 41  1  0  0  0  0
 22 23  1  0  0  0  0
 23 42  1  0  0  0  0
 23 43  1  0  0  0  0
 23 44  1  0  0  0  0
 24 25  1  0  0  0  0
 25 45  1  0  0  0  0
 25 46  1  0  0  0  0
 25 47  1  0  0  0  0
 26 27  1  0  0  0  0
 27 48  1  0  0  0  0
 27 49  1  0  0  0  0
 27 50  1  0  0  0  0
M  END
$$$$
