ZINC03775140
 OpenBabel08292219463D

 62 64  0  0  1  0  0  0  0  0999 V2000
   -0.0173    1.4248    0.0099 C   0  0  0  0  0  0  0  0  0  0  0  0
    0.0021   -0.0041    0.0020 O   0  0  0  0  0  0  0  0  0  0  0  0
    0.6048   -0.6061   -1.0540 C   0  0  0  0  0  0  0  0  0  0  0  0
    1.1714    0.1577   -2.0595 C   0  0  0  0  0  0  0  0  0  0  0  0
    1.7875   -0.4643   -3.1379 C   0  0  0  0  0  0  0  0  0  0  0  0
    1.8368   -1.8562   -3.2112 C   0  0  0  0  0  0  0  0  0  0  0  0
    1.2804   -2.6188   -2.2247 C   0  0  0  0  0  0  0  0  0  0  0  0
    0.6619   -2.0064   -1.1291 C   0  0  0  0  0  0  0  0  0  0  0  0
    0.0677   -2.8282   -0.0619 C   0  0  0  0  0  0  0  0  0  0  0  0
   -0.4739   -2.2937    0.8871 O   0  0  0  0  0  0  0  0  0  0  0  0
    0.1238   -4.1727   -0.1363 N   0  0  0  0  0  0  0  0  0  0  0  0
   -0.4675   -4.9905    0.9257 C   0  0  2  0  0  0  0  0  0  0  0  0
   -1.3642   -4.5012    1.3060 H   0  0  0  0  0  0  0  0  0  0  0  0
    0.5437   -5.1622    2.0629 C   0  0  0  0  0  0  0  0  0  0  0  0
    1.7671   -5.9184    1.5404 C   0  0  0  0  0  0  0  0  0  0  0  0
    1.3566   -7.2378    1.0453 N   0  3  1  0  0  0  0  0  0  0  0  0
    0.4423   -7.0806   -0.0921 C   0  0  0  0  0  0  0  0  0  0  0  0
   -0.8339   -6.3685    0.3670 C   0  0  2  0  0  0  0  0  0  0  0  0
   -1.3203   -6.9585    1.1438 H   0  0  0  0  0  0  0  0  0  0  0  0
   -1.7219   -6.2131   -0.7418 O   0  0  0  0  0  0  0  0  0  0  0  0
   -2.6322   -7.3011   -0.9143 C   0  0  0  0  0  0  0  0  0  0  0  0
    2.5438   -7.9895    0.6171 C   0  0  0  0  0  0  0  0  0  0  0  0
    3.4343   -8.2703    1.8292 C   0  0  0  0  0  0  0  0  0  0  0  0
    4.6708   -9.0533    1.3832 C   0  0  0  0  0  0  0  0  0  0  0  0
    5.5024   -9.3155    2.5152 O   0  0  0  0  0  0  0  0  0  0  0  0
    6.6507  -10.0076    2.2904 C   0  0  0  0  0  0  0  0  0  0  0  0
    6.9722  -10.4203    1.0058 C   0  0  0  0  0  0  0  0  0  0  0  0
    8.1394  -11.1237    0.7787 C   0  0  0  0  0  0  0  0  0  0  0  0
    8.9878  -11.4170    1.8328 C   0  0  0  0  0  0  0  0  0  0  0  0
    8.6679  -11.0061    3.1156 C   0  0  0  0  0  0  0  0  0  0  0  0
    7.5046  -10.2969    3.3445 C   0  0  0  0  0  0  0  0  0  0  0  0
   10.1287  -12.1053    1.6094 F   0  0  0  0  0  0  0  0  0  0  0  0
    2.6089   -2.6229   -4.5639 Cl  0  0  0  0  0  0  0  0  0  0  0  0
    2.3569    0.3038   -4.1485 N   0  0  0  0  0  0  0  0  0  0  0  0
    1.0053    1.8021    0.0021 H   0  0  0  0  0  0  0  0  0  0  0  0
   -0.5445    1.7859   -0.8732 H   0  0  0  0  0  0  0  0  0  0  0  0
   -0.5275    1.7763    0.9067 H   0  0  0  0  0  0  0  0  0  0  0  0
    1.1342    1.2357   -2.0059 H   0  0  0  0  0  0  0  0  0  0  0  0
    1.3215   -3.6961   -2.2880 H   0  0  0  0  0  0  0  0  0  0  0  0
    0.5557   -4.5989   -0.8931 H   0  0  0  0  0  0  0  0  0  0  0  0
    0.8503   -4.1821    2.4284 H   0  0  0  0  0  0  0  0  0  0  0  0
    0.0859   -5.7273    2.8748 H   0  0  0  0  0  0  0  0  0  0  0  0
    2.2242   -5.3523    0.7288 H   0  0  0  0  0  0  0  0  0  0  0  0
    2.4891   -6.0421    2.3475 H   0  0  0  0  0  0  0  0  0  0  0  0
    0.9276   -6.4898   -0.8690 H   0  0  0  0  0  0  0  0  0  0  0  0
    0.1862   -8.0624   -0.4903 H   0  0  0  0  0  0  0  0  0  0  0  0
   -2.0715   -8.2215   -1.0778 H   0  0  0  0  0  0  0  0  0  0  0  0
   -3.2481   -7.4047   -0.0210 H   0  0  0  0  0  0  0  0  0  0  0  0
   -3.2712   -7.1071   -1.7758 H   0  0  0  0  0  0  0  0  0  0  0  0
    2.2339   -8.9329    0.1676 H   0  0  0  0  0  0  0  0  0  0  0  0
    3.1003   -7.4039   -0.1147 H   0  0  0  0  0  0  0  0  0  0  0  0
    3.7442   -7.3269    2.2786 H   0  0  0  0  0  0  0  0  0  0  0  0
    2.8778   -8.8559    2.5610 H   0  0  0  0  0  0  0  0  0  0  0  0
    4.3608   -9.9967    0.9337 H   0  0  0  0  0  0  0  0  0  0  0  0
    5.2272   -8.4676    0.6514 H   0  0  0  0  0  0  0  0  0  0  0  0
    6.3103  -10.1922    0.1835 H   0  0  0  0  0  0  0  0  0  0  0  0
    8.3900  -11.4451   -0.2214 H   0  0  0  0  0  0  0  0  0  0  0  0
    9.3304  -11.2359    3.9370 H   0  0  0  0  0  0  0  0  0  0  0  0
    7.2577   -9.9722    4.3445 H   0  0  0  0  0  0  0  0  0  0  0  0
    2.3233    1.2719   -4.0992 H   0  0  0  0  0  0  0  0  0  0  0  0
    2.7876   -0.1289   -4.9023 H   0  0  0  0  0  0  0  0  0  0  0  0
    0.8896   -7.7426    1.7837 H   0  0  0  0  0  0  0  0  0  0  0  0
  1  2  1  0  0  0  0
  1 35  1  0  0  0  0
  1 36  1  0  0  0  0
  1 37  1  0  0  0  0
  2  3  1  0  0  0  0
  3  8  2  0  0  0  0
  3  4  1  0  0  0  0
  4  5  2  0  0  0  0
  4 38  1  0  0  0  0
  5  6  1  0  0  0  0
  5 34  1  0  0  0  0
  6  7  2  0  0  0  0
  6 33  1  0  0  0  0
  7  8  1  0  0  0  0
  7 39  1  0  0  0  0
  8  9  1  0  0  0  0
  9 10  2  0  0  0  0
  9 11  1  0  0  0  0
 11 12  1  0  0  0  0
 11 40  1  0  0  0  0
 12 13  1  1  0  0  0
 12 18  1  0  0  0  0
 12 14  1  0  0  0  0
 14 15  1  0  0  0  0
 14 41  1  0  0  0  0
 14 42  1  0  0  0  0
 15 16  1  0  0  0  0
 15 43  1  0  0  0  0
 15 44  1  0  0  0  0
 16 17  1  0  0  0  0
 16 22  1  0  0  0  0
 16 62  1  1  0  0  0
 17 18  1  0  0  0  0
 17 45  1  0  0  0  0
 17 46  1  0  0  0  0
 18 19  1  1  0  0  0
 18 20  1  0  0  0  0
 20 21  1  0  0  0  0
 21 47  1  0  0  0  0
 21 48  1  0  0  0  0
 21 49  1  0  0  0  0
 22 23  1  0  0  0  0
 22 50  1  0  0  0  0
 22 51  1  0  0  0  0
 23 24  1  0  0  0  0
 23 52  1  0  0  0  0
 23 53  1  0  0  0  0
 24 25  1  0  0  0  0
 24 54  1  0  0  0  0
 24 55  1  0  0  0  0
 25 26  1  0  0  0  0
 26 31  2  0  0  0  0
 26 27  1  0  0  0  0
 27 28  2  0  0  0  0
 27 56  1  0  0  0  0
 28 29  1  0  0  0  0
 28 57  1  0  0  0  0
 29 30  2  0  0  0  0
 29 32  1  0  0  0  0
 30 31  1  0  0  0  0
 30 58  1  0  0  0  0
 31 59  1  0  0  0  0
 34 60  1  0  0  0  0
 34 61  1  0  0  0  0
M  CHG  1  16   1
M  END
$$$$
