ZINC00056648
 OpenBabel08292219463D

 31 31  0  0  0  0  0  0  0  0999 V2000
    0.2914    2.0792    1.3551 C   0  0  0  0  0  0  0  0  0  0  0  0
    0.2456    0.6120    0.9236 C   0  0  0  0  0  0  0  0  0  0  0  0
    0.8407   -0.2013    1.9369 O   0  0  0  0  0  0  0  0  0  0  0  0
    0.8804   -1.5239    1.7114 C   0  0  0  0  0  0  0  0  0  0  0  0
    0.4250   -1.9762    0.6877 O   0  0  0  0  0  0  0  0  0  0  0  0
    1.4929   -2.4447    2.7351 C   0  0  0  0  0  0  0  0  0  0  0  0
    2.9584   -2.0627    2.9526 C   0  0  0  0  0  0  0  0  0  0  0  0
    0.7313   -2.3176    4.0559 C   0  0  0  0  0  0  0  0  0  0  0  0
    1.4164   -3.7934    2.2689 O   0  0  0  0  0  0  0  0  0  0  0  0
    0.1750   -4.2991    2.0441 C   0  0  0  0  0  0  0  0  0  0  0  0
   -0.9382   -3.4773    2.1437 C   0  0  0  0  0  0  0  0  0  0  0  0
   -2.1991   -3.9931    1.9150 C   0  0  0  0  0  0  0  0  0  0  0  0
   -2.3522   -5.3286    1.5871 C   0  0  0  0  0  0  0  0  0  0  0  0
   -1.2432   -6.1500    1.4877 C   0  0  0  0  0  0  0  0  0  0  0  0
    0.0199   -5.6363    1.7093 C   0  0  0  0  0  0  0  0  0  0  0  0
   -3.9379   -5.9746    1.3006 Cl  0  0  0  0  0  0  0  0  0  0  0  0
    1.3280    2.3825    1.5022 H   0  0  0  0  0  0  0  0  0  0  0  0
   -0.1625    2.6995    0.5823 H   0  0  0  0  0  0  0  0  0  0  0  0
   -0.2587    2.2008    2.2882 H   0  0  0  0  0  0  0  0  0  0  0  0
   -0.7909    0.3087    0.7765 H   0  0  0  0  0  0  0  0  0  0  0  0
    0.7957    0.4903   -0.0095 H   0  0  0  0  0  0  0  0  0  0  0  0
    3.0225   -1.0097    3.2267 H   0  0  0  0  0  0  0  0  0  0  0  0
    3.3780   -2.6726    3.7526 H   0  0  0  0  0  0  0  0  0  0  0  0
    3.5188   -2.2336    2.0334 H   0  0  0  0  0  0  0  0  0  0  0  0
   -0.2500   -2.7815    3.9556 H   0  0  0  0  0  0  0  0  0  0  0  0
    1.2902   -2.8173    4.8471 H   0  0  0  0  0  0  0  0  0  0  0  0
    0.6110   -1.2636    4.3060 H   0  0  0  0  0  0  0  0  0  0  0  0
   -0.8191   -2.4350    2.4003 H   0  0  0  0  0  0  0  0  0  0  0  0
   -3.0660   -3.3536    1.9924 H   0  0  0  0  0  0  0  0  0  0  0  0
   -1.3647   -7.1922    1.2321 H   0  0  0  0  0  0  0  0  0  0  0  0
    0.8857   -6.2766    1.6269 H   0  0  0  0  0  0  0  0  0  0  0  0
  1  2  1  0  0  0  0
  1 17  1  0  0  0  0
  1 18  1  0  0  0  0
  1 19  1  0  0  0  0
  2  3  1  0  0  0  0
  2 20  1  0  0  0  0
  2 21  1  0  0  0  0
  3  4  1  0  0  0  0
  4  5  2  0  0  0  0
  4  6  1  0  0  0  0
  6  7  1  0  0  0  0
  6  8  1  0  0  0  0
  6  9  1  0  0  0  0
  7 22  1  0  0  0  0
  7 23  1  0  0  0  0
  7 24  1  0  0  0  0
  8 25  1  0  0  0  0
  8 26  1  0  0  0  0
  8 27  1  0  0  0  0
  9 10  1  0  0  0  0
 10 15  2  0  0  0  0
 10 11  1  0  0  0  0
 11 12  2  0  0  0  0
 11 28  1  0  0  0  0
 12 13  1  0  0  0  0
 12 29  1  0  0  0  0
 13 14  2  0  0  0  0
 13 16  1  0  0  0  0
 14 15  1  0  0  0  0
 14 30  1  0  0  0  0
 15 31  1  0  0  0  0
M  END
$$$$
