ZINC35379666
 OpenBabel08292219463D

 58 60  0  0  1  0  0  0  0  0999 V2000
   -0.0187    1.5258    0.0104 C   0  0  0  0  0  0  0  0  0  0  0  0
    0.0021   -0.0041    0.0020 C   0  0  0  0  0  0  0  0  0  0  0  0
   -1.3386   -0.4987    0.0122 O   0  0  0  0  0  0  0  0  0  0  0  0
   -1.4964   -1.8317    0.0065 C   0  0  0  0  0  0  0  0  0  0  0  0
   -0.5283   -2.5546   -0.0066 O   0  0  0  0  0  0  0  0  0  0  0  0
   -2.8809   -2.4266    0.0165 C   0  0  2  0  0  0  0  0  0  0  0  0
   -3.4261   -2.0931   -0.8665 H   0  0  0  0  0  0  0  0  0  0  0  0
   -3.6222   -1.9719    1.2754 C   0  0  0  0  0  0  0  0  0  0  0  0
   -5.0671   -2.4727    1.2252 C   0  0  0  0  0  0  0  0  0  0  0  0
   -5.7973   -2.0249    2.4651 C   0  0  0  0  0  0  0  0  0  0  0  0
   -5.7979   -2.8237    3.5933 C   0  0  0  0  0  0  0  0  0  0  0  0
   -6.4677   -2.4129    4.7306 C   0  0  0  0  0  0  0  0  0  0  0  0
   -7.1365   -1.2032    4.7400 C   0  0  0  0  0  0  0  0  0  0  0  0
   -7.1351   -0.4039    3.6121 C   0  0  0  0  0  0  0  0  0  0  0  0
   -6.4617   -0.8127    2.4761 C   0  0  0  0  0  0  0  0  0  0  0  0
   -2.7842   -3.8923    0.0077 N   0  0  0  0  0  0  0  0  0  0  0  0
   -2.6433   -4.4024   -1.3626 C   0  0  1  0  0  0  0  0  0  0  0  0
   -2.0501   -3.7002   -1.9483 H   0  0  0  0  0  0  0  0  0  0  0  0
   -1.9323   -5.7553   -1.3264 C   0  0  0  0  0  0  0  0  0  0  0  0
   -2.1393   -6.4773   -2.6603 C   0  0  0  0  0  0  0  0  0  0  0  0
   -1.9662   -5.5165   -3.8055 C   0  0  0  0  0  0  0  0  0  0  0  0
   -0.8057   -5.5264   -4.5549 C   0  0  0  0  0  0  0  0  0  0  0  0
   -0.6596   -4.6484   -5.6132 C   0  0  0  0  0  0  0  0  0  0  0  0
   -1.6721   -3.7597   -5.9260 C   0  0  0  0  0  0  0  0  0  0  0  0
   -2.8334   -3.7423   -5.1773 C   0  0  0  0  0  0  0  0  0  0  0  0
   -2.9782   -4.6186   -4.1116 C   0  0  0  0  0  0  0  0  0  0  0  0
   -4.1359   -4.5914   -3.3219 N   0  0  0  0  0  0  0  0  0  0  0  0
   -4.0054   -4.5389   -1.9833 C   0  0  0  0  0  0  0  0  0  0  0  0
   -4.9889   -4.6012   -1.2763 O   0  0  0  0  0  0  0  0  0  0  0  0
   -5.4630   -4.6202   -3.9418 C   0  0  0  0  0  0  0  0  0  0  0  0
   -5.9133   -6.0498   -4.0985 C   0  0  0  0  0  0  0  0  0  0  0  0
   -5.1925   -6.9602   -3.7270 O   0  0  0  0  0  0  0  0  0  0  0  0
   -6.9985   -6.2959   -4.5970 O   0  0  0  0  0  1  0  0  0  0  0  0
    1.0039    1.9031    0.0027 H   0  0  0  0  0  0  0  0  0  0  0  0
   -0.5459    1.8868   -0.8726 H   0  0  0  0  0  0  0  0  0  0  0  0
   -0.5289    1.8773    0.9072 H   0  0  0  0  0  0  0  0  0  0  0  0
    0.5123   -0.3556   -0.8948 H   0  0  0  0  0  0  0  0  0  0  0  0
    0.5293   -0.3651    0.8851 H   0  0  0  0  0  0  0  0  0  0  0  0
   -3.1266   -2.3801    2.1562 H   0  0  0  0  0  0  0  0  0  0  0  0
   -3.6166   -0.8832    1.3271 H   0  0  0  0  0  0  0  0  0  0  0  0
   -5.5627   -2.0645    0.3443 H   0  0  0  0  0  0  0  0  0  0  0  0
   -5.0727   -3.5614    1.1735 H   0  0  0  0  0  0  0  0  0  0  0  0
   -5.2754   -3.7688    3.5860 H   0  0  0  0  0  0  0  0  0  0  0  0
   -6.4687   -3.0374    5.6118 H   0  0  0  0  0  0  0  0  0  0  0  0
   -7.6603   -0.8826    5.6283 H   0  0  0  0  0  0  0  0  0  0  0  0
   -7.6579    0.5411    3.6192 H   0  0  0  0  0  0  0  0  0  0  0  0
   -6.4575   -0.1866    1.5961 H   0  0  0  0  0  0  0  0  0  0  0  0
   -2.0238   -4.2080    0.5910 H   0  0  0  0  0  0  0  0  0  0  0  0
   -0.8665   -5.6011   -1.1584 H   0  0  0  0  0  0  0  0  0  0  0  0
   -2.3436   -6.3602   -0.5183 H   0  0  0  0  0  0  0  0  0  0  0  0
   -1.4105   -7.2828   -2.7515 H   0  0  0  0  0  0  0  0  0  0  0  0
   -3.1444   -6.8980   -2.6908 H   0  0  0  0  0  0  0  0  0  0  0  0
   -0.0130   -6.2192   -4.3141 H   0  0  0  0  0  0  0  0  0  0  0  0
    0.2487   -4.6564   -6.1975 H   0  0  0  0  0  0  0  0  0  0  0  0
   -1.5549   -3.0785   -6.7558 H   0  0  0  0  0  0  0  0  0  0  0  0
   -3.6249   -3.0490   -5.4205 H   0  0  0  0  0  0  0  0  0  0  0  0
   -6.1708   -4.0835   -3.3100 H   0  0  0  0  0  0  0  0  0  0  0  0
   -5.4169   -4.1443   -4.9213 H   0  0  0  0  0  0  0  0  0  0  0  0
  1  2  1  0  0  0  0
  1 34  1  0  0  0  0
  1 35  1  0  0  0  0
  1 36  1  0  0  0  0
  2  3  1  0  0  0  0
  2 37  1  0  0  0  0
  2 38  1  0  0  0  0
  3  4  1  0  0  0  0
  4  5  2  0  0  0  0
  4  6  1  0  0  0  0
  6  7  1  6  0  0  0
  6  8  1  0  0  0  0
  6 16  1  0  0  0  0
  8  9  1  0  0  0  0
  8 39  1  0  0  0  0
  8 40  1  0  0  0  0
  9 10  1  0  0  0  0
  9 41  1  0  0  0  0
  9 42  1  0  0  0  0
 10 15  2  0  0  0  0
 10 11  1  0  0  0  0
 11 12  2  0  0  0  0
 11 43  1  0  0  0  0
 12 13  1  0  0  0  0
 12 44  1  0  0  0  0
 13 14  2  0  0  0  0
 13 45  1  0  0  0  0
 14 15  1  0  0  0  0
 14 46  1  0  0  0  0
 15 47  1  0  0  0  0
 16 17  1  0  0  0  0
 16 48  1  0  0  0  0
 17 18  1  6  0  0  0
 17 28  1  0  0  0  0
 17 19  1  0  0  0  0
 19 20  1  0  0  0  0
 19 49  1  0  0  0  0
 19 50  1  0  0  0  0
 20 21  1  0  0  0  0
 20 51  1  0  0  0  0
 20 52  1  0  0  0  0
 21 26  2  0  0  0  0
 21 22  1  0  0  0  0
 22 23  2  0  0  0  0
 22 53  1  0  0  0  0
 23 24  1  0  0  0  0
 23 54  1  0  0  0  0
 24 25  2  0  0  0  0
 24 55  1  0  0  0  0
 25 26  1  0  0  0  0
 25 56  1  0  0  0  0
 26 27  1  0  0  0  0
 27 28  1  0  0  0  0
 27 30  1  0  0  0  0
 28 29  2  0  0  0  0
 30 31  1  0  0  0  0
 30 57  1  0  0  0  0
 30 58  1  0  0  0  0
 31 32  2  0  0  0  0
 31 33  1  0  0  0  0
M  END
$$$$
