ZINC14210642
 OpenBabel08292219463D

 65 70  0  0  0  0  0  0  0  0999 V2000
   -2.7134    0.7525    2.1104 C   0  0  0  0  0  0  0  0  0  0  0  0
   -2.3833   -0.6879    1.7140 C   0  0  0  0  0  0  0  0  0  0  0  0
   -1.3317   -1.1818    2.5460 O   0  0  0  0  0  0  0  0  0  0  0  0
   -0.9174   -2.4504    2.3243 C   0  0  0  0  0  0  0  0  0  0  0  0
   -1.4005   -3.2489    1.4087 N   0  0  0  0  0  0  0  0  0  0  0  0
   -0.7564   -4.4452    1.4640 C   0  0  0  0  0  0  0  0  0  0  0  0
   -0.8704   -5.6306    0.7347 C   0  0  0  0  0  0  0  0  0  0  0  0
   -0.0577   -6.7056    1.0290 C   0  0  0  0  0  0  0  0  0  0  0  0
    0.8768   -6.6269    2.0445 C   0  0  0  0  0  0  0  0  0  0  0  0
    1.0100   -5.4536    2.7882 C   0  0  0  0  0  0  0  0  0  0  0  0
    0.1897   -4.3552    2.4973 C   0  0  0  0  0  0  0  0  0  0  0  0
    0.0710   -3.0851    3.0191 N   0  0  0  0  0  0  0  0  0  0  0  0
    0.8578   -2.5218    4.1189 C   0  0  0  0  0  0  0  0  0  0  0  0
    0.3801   -3.1001    5.4260 C   0  0  0  0  0  0  0  0  0  0  0  0
   -0.7967   -2.6438    5.9922 C   0  0  0  0  0  0  0  0  0  0  0  0
   -1.2393   -3.1700    7.1887 C   0  0  0  0  0  0  0  0  0  0  0  0
   -0.4980   -4.1632    7.8269 C   0  0  0  0  0  0  0  0  0  0  0  0
    0.6872   -4.6192    7.2515 C   0  0  0  0  0  0  0  0  0  0  0  0
    1.1172   -4.0892    6.0521 C   0  0  0  0  0  0  0  0  0  0  0  0
   -0.9679   -4.7321    9.1126 C   0  0  0  0  0  0  0  0  0  0  0  0
   -1.3418   -3.8894   10.1560 C   0  0  0  0  0  0  0  0  0  0  0  0
   -1.7792   -4.4233   11.3512 C   0  0  0  0  0  0  0  0  0  0  0  0
   -1.8487   -5.7957   11.5212 C   0  0  0  0  0  0  0  0  0  0  0  0
   -1.4815   -6.6452   10.4972 C   0  0  0  0  0  0  0  0  0  0  0  0
   -1.0440   -6.1233    9.2829 C   0  0  0  0  0  0  0  0  0  0  0  0
   -0.6542   -7.0321    8.1780 C   0  0  0  0  0  0  0  0  0  0  0  0
   -0.2184   -6.6583    6.9994 N   0  0  0  0  0  0  0  0  0  0  0  0
    0.0322   -7.8466    6.2642 O   0  0  0  0  0  0  0  0  0  0  0  0
   -0.2797   -8.8680    7.0767 C   0  0  0  0  0  0  0  0  0  0  0  0
   -0.1869  -10.1800    6.7690 O   0  5  0  0  0  0  0  0  0  0  0  0
   -0.6839   -8.3754    8.2214 N   0  0  0  0  0  0  0  0  0  0  0  0
    2.0062   -5.3700    3.8713 C   0  0  0  0  0  0  0  0  0  0  0  0
    2.5971   -4.3278    4.0742 O   0  0  0  0  0  0  0  0  0  0  0  0
    2.2617   -6.4494    4.6364 O   0  0  0  0  0  0  0  0  0  0  0  0
    3.2391   -6.2969    5.6677 C   0  0  0  0  0  0  0  0  0  0  0  0
    3.3899   -7.5979    6.4132 C   0  0  0  0  0  0  0  0  0  0  0  0
    4.4783   -8.3500    6.4496 C   0  0  0  0  0  0  0  0  0  0  0  0
    4.2187   -9.4326    7.2228 O   0  0  0  0  0  0  0  0  0  0  0  0
    2.9533   -9.3338    7.6610 C   0  0  0  0  0  0  0  0  0  0  0  0
    2.3798  -10.1290    8.3800 O   0  0  0  0  0  0  0  0  0  0  0  0
    2.4362   -8.1972    7.1673 O   0  0  0  0  0  0  0  0  0  0  0  0
    5.7807   -8.0542    5.7515 C   0  0  0  0  0  0  0  0  0  0  0  0
   -1.8280    1.3758    1.9854 H   0  0  0  0  0  0  0  0  0  0  0  0
   -3.5155    1.1293    1.4758 H   0  0  0  0  0  0  0  0  0  0  0  0
   -3.0319    0.7786    3.1525 H   0  0  0  0  0  0  0  0  0  0  0  0
   -3.2687   -1.3112    1.8391 H   0  0  0  0  0  0  0  0  0  0  0  0
   -2.0647   -0.7140    0.6719 H   0  0  0  0  0  0  0  0  0  0  0  0
   -1.5966   -5.7060   -0.0612 H   0  0  0  0  0  0  0  0  0  0  0  0
   -0.1528   -7.6187    0.4602 H   0  0  0  0  0  0  0  0  0  0  0  0
    1.5062   -7.4768    2.2633 H   0  0  0  0  0  0  0  0  0  0  0  0
    1.9101   -2.7674    3.9759 H   0  0  0  0  0  0  0  0  0  0  0  0
    0.7365   -1.4387    4.1349 H   0  0  0  0  0  0  0  0  0  0  0  0
   -1.3699   -1.8740    5.4970 H   0  0  0  0  0  0  0  0  0  0  0  0
   -2.1580   -2.8127    7.6299 H   0  0  0  0  0  0  0  0  0  0  0  0
    1.2657   -5.3882    7.7417 H   0  0  0  0  0  0  0  0  0  0  0  0
    2.0328   -4.4448    5.6032 H   0  0  0  0  0  0  0  0  0  0  0  0
   -1.2892   -2.8180   10.0302 H   0  0  0  0  0  0  0  0  0  0  0  0
   -2.0685   -3.7669   12.1586 H   0  0  0  0  0  0  0  0  0  0  0  0
   -2.1920   -6.2037   12.4604 H   0  0  0  0  0  0  0  0  0  0  0  0
   -1.5378   -7.7147   10.6365 H   0  0  0  0  0  0  0  0  0  0  0  0
    4.1952   -6.0195    5.2240 H   0  0  0  0  0  0  0  0  0  0  0  0
    2.9193   -5.5171    6.3589 H   0  0  0  0  0  0  0  0  0  0  0  0
    6.4218   -7.4694    6.4110 H   0  0  0  0  0  0  0  0  0  0  0  0
    6.2778   -8.9906    5.4980 H   0  0  0  0  0  0  0  0  0  0  0  0
    5.5844   -7.4888    4.8405 H   0  0  0  0  0  0  0  0  0  0  0  0
  1  2  1  0  0  0  0
  1 43  1  0  0  0  0
  1 44  1  0  0  0  0
  1 45  1  0  0  0  0
  2  3  1  0  0  0  0
  2 46  1  0  0  0  0
  2 47  1  0  0  0  0
  3  4  1  0  0  0  0
  4 12  1  0  0  0  0
  4  5  2  0  0  0  0
  5  6  1  0  0  0  0
  6 11  2  0  0  0  0
  6  7  1  0  0  0  0
  7  8  2  0  0  0  0
  7 48  1  0  0  0  0
  8  9  1  0  0  0  0
  8 49  1  0  0  0  0
  9 10  2  0  0  0  0
  9 50  1  0  0  0  0
 10 11  1  0  0  0  0
 10 32  1  0  0  0  0
 11 12  1  0  0  0  0
 12 13  1  0  0  0  0
 13 14  1  0  0  0  0
 13 51  1  0  0  0  0
 13 52  1  0  0  0  0
 14 19  2  0  0  0  0
 14 15  1  0  0  0  0
 15 16  2  0  0  0  0
 15 53  1  0  0  0  0
 16 17  1  0  0  0  0
 16 54  1  0  0  0  0
 17 18  2  0  0  0  0
 17 20  1  0  0  0  0
 18 19  1  0  0  0  0
 18 55  1  0  0  0  0
 19 56  1  0  0  0  0
 20 25  2  0  0  0  0
 20 21  1  0  0  0  0
 21 22  2  0  0  0  0
 21 57  1  0  0  0  0
 22 23  1  0  0  0  0
 22 58  1  0  0  0  0
 23 24  2  0  0  0  0
 23 59  1  0  0  0  0
 24 25  1  0  0  0  0
 24 60  1  0  0  0  0
 25 26  1  0  0  0  0
 26 31  1  0  0  0  0
 26 27  2  0  0  0  0
 27 28  1  0  0  0  0
 28 29  1  0  0  0  0
 29 30  1  0  0  0  0
 29 31  2  0  0  0  0
 32 33  2  0  0  0  0
 32 34  1  0  0  0  0
 34 35  1  0  0  0  0
 35 36  1  0  0  0  0
 35 61  1  0  0  0  0
 35 62  1  0  0  0  0
 36 41  1  0  0  0  0
 36 37  2  0  0  0  0
 37 38  1  0  0  0  0
 37 42  1  0  0  0  0
 38 39  1  0  0  0  0
 39 40  2  0  0  0  0
 39 41  1  0  0  0  0
 42 63  1  0  0  0  0
 42 64  1  0  0  0  0
 42 65  1  0  0  0  0
M  CHG  1  30  -1
M  END
$$$$
