ZINC00968301
 OpenBabel08292219463D

 51 53  0  0  1  0  0  0  0  0999 V2000
   -0.0178    1.4648    0.0101 C   0  0  0  0  0  0  0  0  0  0  0  0
    0.0021   -0.0041    0.0020 N   0  3  0  0  0  0  0  0  0  0  0  0
    0.7116   -0.4854   -1.2024 C   0  0  0  0  0  0  0  0  0  0  0  0
    2.1644   -0.7417   -0.7297 C   0  0  0  0  0  0  0  0  0  0  0  0
    1.9349   -1.3008    0.6992 C   0  0  2  0  0  0  0  0  0  0  0  0
    1.7066   -2.3661    0.6641 H   0  0  0  0  0  0  0  0  0  0  0  0
    0.7144   -0.4972    1.1951 C   0  0  0  0  0  0  0  0  0  0  0  0
    3.0746   -1.0571    1.5261 O   0  0  0  0  0  0  0  0  0  0  0  0
    4.0140   -2.0151    1.5669 C   0  0  0  0  0  0  0  0  0  0  0  0
    3.8733   -3.0270    0.9218 O   0  0  0  0  0  0  0  0  0  0  0  0
    5.2441   -1.8285    2.4172 C   0  0  1  0  0  0  0  0  0  0  0  0
    5.8060   -3.1761    2.7903 C   0  0  0  0  0  0  0  0  0  0  0  0
    6.7475   -3.7811    1.9789 C   0  0  0  0  0  0  0  0  0  0  0  0
    7.2630   -5.0172    2.3211 C   0  0  0  0  0  0  0  0  0  0  0  0
    6.8372   -5.6482    3.4750 C   0  0  0  0  0  0  0  0  0  0  0  0
    5.8964   -5.0428    4.2869 C   0  0  0  0  0  0  0  0  0  0  0  0
    5.3841   -3.8047    3.9469 C   0  0  0  0  0  0  0  0  0  0  0  0
    6.2925   -1.0387    1.6311 C   0  0  0  0  0  0  0  0  0  0  0  0
    7.5022   -0.6850    2.5314 C   0  0  0  0  0  0  0  0  0  0  0  0
    8.1269    0.5535    1.8564 C   0  0  0  0  0  0  0  0  0  0  0  0
    7.0095    1.2142    1.0301 C   0  0  0  0  0  0  0  0  0  0  0  0
    5.7449    0.3541    1.2318 C   0  0  0  0  0  0  0  0  0  0  0  0
    4.8985   -1.1113    3.6039 O   0  0  0  0  0  0  0  0  0  0  0  0
   -1.3740   -0.5182    0.0002 C   0  0  0  0  0  0  0  0  0  0  0  0
    1.0047    1.8421    0.0024 H   0  0  0  0  0  0  0  0  0  0  0  0
   -0.5450    1.8259   -0.8730 H   0  0  0  0  0  0  0  0  0  0  0  0
   -0.5280    1.8163    0.9069 H   0  0  0  0  0  0  0  0  0  0  0  0
    0.2615   -1.4100   -1.5639 H   0  0  0  0  0  0  0  0  0  0  0  0
    0.6951    0.2760   -1.9822 H   0  0  0  0  0  0  0  0  0  0  0  0
    2.6567   -1.4795   -1.3633 H   0  0  0  0  0  0  0  0  0  0  0  0
    2.7345    0.1867   -0.6988 H   0  0  0  0  0  0  0  0  0  0  0  0
    1.0466    0.3444    1.8028 H   0  0  0  0  0  0  0  0  0  0  0  0
    0.0578   -1.1425    1.7786 H   0  0  0  0  0  0  0  0  0  0  0  0
    7.0801   -3.2881    1.0773 H   0  0  0  0  0  0  0  0  0  0  0  0
    7.9980   -5.4902    1.6868 H   0  0  0  0  0  0  0  0  0  0  0  0
    7.2394   -6.6143    3.7421 H   0  0  0  0  0  0  0  0  0  0  0  0
    5.5635   -5.5359    5.1883 H   0  0  0  0  0  0  0  0  0  0  0  0
    4.6518   -3.3300    4.5832 H   0  0  0  0  0  0  0  0  0  0  0  0
    6.6125   -1.5950    0.7501 H   0  0  0  0  0  0  0  0  0  0  0  0
    7.1688   -0.4422    3.5403 H   0  0  0  0  0  0  0  0  0  0  0  0
    8.2158   -1.5087    2.5523 H   0  0  0  0  0  0  0  0  0  0  0  0
    8.4913    1.2475    2.6138 H   0  0  0  0  0  0  0  0  0  0  0  0
    8.9448    0.2500    1.2029 H   0  0  0  0  0  0  0  0  0  0  0  0
    6.8317    2.2289    1.3865 H   0  0  0  0  0  0  0  0  0  0  0  0
    7.2852    1.2313   -0.0243 H   0  0  0  0  0  0  0  0  0  0  0  0
    5.1760    0.2888    0.3043 H   0  0  0  0  0  0  0  0  0  0  0  0
    5.1277    0.7648    2.0309 H   0  0  0  0  0  0  0  0  0  0  0  0
    4.2369   -1.5544    4.1526 H   0  0  0  0  0  0  0  0  0  0  0  0
   -1.8992   -0.1476   -0.8802 H   0  0  0  0  0  0  0  0  0  0  0  0
   -1.3547   -1.6079   -0.0202 H   0  0  0  0  0  0  0  0  0  0  0  0
   -1.8892   -0.1807    0.8995 H   0  0  0  0  0  0  0  0  0  0  0  0
  1  2  1  0  0  0  0
  1 25  1  0  0  0  0
  1 26  1  0  0  0  0
  1 27  1  0  0  0  0
  2  7  1  0  0  0  0
  2  3  1  0  0  0  0
  2 24  1  0  0  0  0
  3  4  1  0  0  0  0
  3 28  1  0  0  0  0
  3 29  1  0  0  0  0
  4  5  1  0  0  0  0
  4 30  1  0  0  0  0
  4 31  1  0  0  0  0
  5  6  1  6  0  0  0
  5  7  1  0  0  0  0
  5  8  1  0  0  0  0
  7 32  1  0  0  0  0
  7 33  1  0  0  0  0
  8  9  1  0  0  0  0
  9 10  2  0  0  0  0
 11  9  1  6  0  0  0
 11 12  1  0  0  0  0
 11 18  1  0  0  0  0
 11 23  1  0  0  0  0
 12 17  2  0  0  0  0
 12 13  1  0  0  0  0
 13 14  2  0  0  0  0
 13 34  1  0  0  0  0
 14 15  1  0  0  0  0
 14 35  1  0  0  0  0
 15 16  2  0  0  0  0
 15 36  1  0  0  0  0
 16 17  1  0  0  0  0
 16 37  1  0  0  0  0
 17 38  1  0  0  0  0
 18 22  1  0  0  0  0
 18 19  1  0  0  0  0
 18 39  1  0  0  0  0
 19 20  1  0  0  0  0
 19 40  1  0  0  0  0
 19 41  1  0  0  0  0
 20 21  1  0  0  0  0
 20 42  1  0  0  0  0
 20 43  1  0  0  0  0
 21 22  1  0  0  0  0
 21 44  1  0  0  0  0
 21 45  1  0  0  0  0
 22 46  1  0  0  0  0
 22 47  1  0  0  0  0
 23 48  1  0  0  0  0
 24 49  1  0  0  0  0
 24 50  1  0  0  0  0
 24 51  1  0  0  0  0
M  CHG  1   2   1
M  END
$$$$
