ZINC08143614
 OpenBabel08292219463D

 85 90  0  0  1  0  0  0  0  0999 V2000
    0.6927    5.3433    0.9552 C   0  0  0  0  0  0  0  0  0  0  0  0
   -0.1637    4.4017    1.8043 C   0  0  1  0  0  0  0  0  0  0  0  0
   -0.5333    3.5864    1.1823 H   0  0  0  0  0  0  0  0  0  0  0  0
    0.6829    3.8304    2.9447 C   0  0  1  0  0  0  0  0  0  0  0  0
    1.0872    4.6472    3.5426 H   0  0  0  0  0  0  0  0  0  0  0  0
   -0.1963    2.9365    3.8246 C   0  0  2  0  0  0  0  0  0  0  0  0
   -0.5585    2.0915    3.2391 H   0  0  0  0  0  0  0  0  0  0  0  0
   -1.3856    3.7546    4.3370 C   0  0  2  0  0  0  0  0  0  0  0  0
   -2.0461    3.1119    4.9190 H   0  0  0  0  0  0  0  0  0  0  0  0
   -2.1524    4.3288    3.1428 C   0  0  1  0  0  0  0  0  0  0  0  0
   -2.9749    4.9471    3.5022 H   0  0  0  0  0  0  0  0  0  0  0  0
   -1.2694    5.1244    2.3495 O   0  0  0  0  0  0  0  0  0  0  0  0
   -2.6715    3.2587    2.3507 O   0  0  0  0  0  0  0  0  0  0  0  0
   -3.5947    3.6763    1.3430 C   0  0  1  0  0  0  0  0  0  0  0  0
   -3.2974    4.6524    0.9598 H   0  0  0  0  0  0  0  0  0  0  0  0
   -3.5974    2.6588    0.2004 C   0  0  0  0  0  0  0  0  0  0  0  0
   -4.0143    1.2885    0.7382 C   0  0  2  0  0  0  0  0  0  0  0  0
   -4.0172    0.5643   -0.0764 H   0  0  0  0  0  0  0  0  0  0  0  0
   -5.4166    1.3817    1.3425 C   0  0  2  0  0  0  0  0  0  0  0  0
   -6.4091    1.8228    0.2646 C   0  0  2  0  0  0  0  0  0  0  0  0
   -6.1136    2.7949   -0.1300 H   0  0  0  0  0  0  0  0  0  0  0  0
   -7.8101    1.9166    0.8666 C   0  0  1  0  0  0  0  0  0  0  0  0
   -8.0811    0.9413    1.2709 H   0  0  0  0  0  0  0  0  0  0  0  0
   -7.8090    2.9353    2.0088 C   0  0  0  0  0  0  0  0  0  0  0  0
   -6.8176    2.4931    3.0866 C   0  0  0  0  0  0  0  0  0  0  0  0
   -5.4146    2.4004    2.4837 C   0  0  2  0  0  0  0  0  0  0  0  0
   -4.9984    3.7704    1.9447 C   0  0  0  0  0  0  0  0  0  0  0  0
   -4.4907    1.9845    3.4915 O   0  0  0  0  0  0  0  0  0  0  0  0
   -8.8410    2.2881   -0.1709 C   0  0  1  0  0  0  0  0  0  0  0  0
   -8.6330    3.7080   -0.7295 C   0  0  0  0  0  0  0  0  0  0  0  0
   -9.4668    3.7170   -2.0245 C   0  0  0  0  0  0  0  0  0  0  0  0
   -9.5846    2.2480   -2.4719 C   0  0  1  0  0  0  0  0  0  0  0  0
   -9.1505    2.1230   -3.4638 H   0  0  0  0  0  0  0  0  0  0  0  0
   -8.7913    1.4104   -1.4336 C   0  0  1  0  0  0  0  0  0  0  0  0
   -7.3584    1.3005   -1.9603 C   0  0  0  0  0  0  0  0  0  0  0  0
   -6.4327    0.7804   -0.8584 C   0  0  1  0  0  0  0  0  0  0  0  0
   -6.7898   -0.1719   -0.4663 H   0  0  0  0  0  0  0  0  0  0  0  0
   -5.1167    0.6202   -1.3920 O   0  0  0  0  0  0  0  0  0  0  0  0
   -9.4096    0.0324   -1.1895 C   0  0  0  0  0  0  0  0  0  0  0  0
  -11.0308    1.8246   -2.4820 C   0  0  0  0  0  0  0  0  0  0  0  0
  -11.6741    1.2270   -3.4816 C   0  0  0  0  0  0  0  0  0  0  0  0
  -13.0650    0.9812   -3.0914 C   0  0  0  0  0  0  0  0  0  0  0  0
  -13.9020    0.4464   -3.7918 O   0  0  0  0  0  0  0  0  0  0  0  0
  -13.2799    1.4398   -1.8441 O   0  0  0  0  0  0  0  0  0  0  0  0
  -12.0283    2.0038   -1.3614 C   0  0  0  0  0  0  0  0  0  0  0  0
  -10.1439    2.1999    0.4094 O   0  0  0  0  0  0  0  0  0  0  0  0
   -5.8303    0.0116    1.8834 C   0  0  0  0  0  0  0  0  0  0  0  0
   -4.9045   -0.4024    2.8901 O   0  0  0  0  0  0  0  0  0  0  0  0
   -3.0893    0.8702    1.7439 O   0  0  0  0  0  0  0  0  0  0  0  0
   -0.9117    4.8225    5.1599 O   0  0  0  0  0  0  0  0  0  0  0  0
    0.5675    2.4575    4.9333 O   0  0  0  0  0  0  0  0  0  0  0  0
    1.7565    3.0588    2.4023 O   0  0  0  0  0  0  0  0  0  0  0  0
    1.5365    4.7921    0.5403 H   0  0  0  0  0  0  0  0  0  0  0  0
    1.0618    6.1587    1.5773 H   0  0  0  0  0  0  0  0  0  0  0  0
    0.0897    5.7500    0.1433 H   0  0  0  0  0  0  0  0  0  0  0  0
   -4.3019    2.9772   -0.5680 H   0  0  0  0  0  0  0  0  0  0  0  0
   -2.5977    2.5918   -0.2287 H   0  0  0  0  0  0  0  0  0  0  0  0
   -7.5156    3.9120    1.6241 H   0  0  0  0  0  0  0  0  0  0  0  0
   -8.8084    2.9997    2.4390 H   0  0  0  0  0  0  0  0  0  0  0  0
   -7.1122    1.5173    3.4727 H   0  0  0  0  0  0  0  0  0  0  0  0
   -6.8164    3.2197    3.8991 H   0  0  0  0  0  0  0  0  0  0  0  0
   -4.9972    4.4959    2.7582 H   0  0  0  0  0  0  0  0  0  0  0  0
   -5.7029    4.0877    1.1759 H   0  0  0  0  0  0  0  0  0  0  0  0
   -4.4372    2.5846    4.2478 H   0  0  0  0  0  0  0  0  0  0  0  0
   -9.0172    4.4542   -0.0340 H   0  0  0  0  0  0  0  0  0  0  0  0
   -7.5790    3.8864   -0.9421 H   0  0  0  0  0  0  0  0  0  0  0  0
   -8.9513    4.2996   -2.7879 H   0  0  0  0  0  0  0  0  0  0  0  0
  -10.4580    4.1328   -1.8437 H   0  0  0  0  0  0  0  0  0  0  0  0
   -7.3353    0.5983   -2.7937 H   0  0  0  0  0  0  0  0  0  0  0  0
   -7.0274    2.2795   -2.3068 H   0  0  0  0  0  0  0  0  0  0  0  0
   -5.0589   -0.0266   -2.1086 H   0  0  0  0  0  0  0  0  0  0  0  0
  -10.4218    0.1515   -0.8031 H   0  0  0  0  0  0  0  0  0  0  0  0
   -9.4416   -0.5227   -2.1271 H   0  0  0  0  0  0  0  0  0  0  0  0
   -8.8058   -0.5135   -0.4646 H   0  0  0  0  0  0  0  0  0  0  0  0
  -11.2377    0.9617   -4.4333 H   0  0  0  0  0  0  0  0  0  0  0  0
  -11.6939    1.4692   -0.4722 H   0  0  0  0  0  0  0  0  0  0  0  0
  -12.1553    3.0630   -1.1377 H   0  0  0  0  0  0  0  0  0  0  0  0
  -10.2730    2.7756    1.1755 H   0  0  0  0  0  0  0  0  0  0  0  0
   -6.8296    0.0774    2.3137 H   0  0  0  0  0  0  0  0  0  0  0  0
   -5.8319   -0.7146    1.0705 H   0  0  0  0  0  0  0  0  0  0  0  0
   -5.1053   -1.2650    3.2784 H   0  0  0  0  0  0  0  0  0  0  0  0
   -2.1678    0.8600    1.4509 H   0  0  0  0  0  0  0  0  0  0  0  0
   -1.6129    5.3829    5.5195 H   0  0  0  0  0  0  0  0  0  0  0  0
    0.0721    1.8838    5.5337 H   0  0  0  0  0  0  0  0  0  0  0  0
    2.3519    3.5614    1.8296 H   0  0  0  0  0  0  0  0  0  0  0  0
  1  2  1  0  0  0  0
  1 53  1  0  0  0  0
  1 54  1  0  0  0  0
  1 55  1  0  0  0  0
  2  3  1  6  0  0  0
  2 12  1  0  0  0  0
  2  4  1  0  0  0  0
  4  5  1  1  0  0  0
  4  6  1  0  0  0  0
  4 52  1  0  0  0  0
  6  7  1  6  0  0  0
  6  8  1  0  0  0  0
  6 51  1  0  0  0  0
  8  9  1  1  0  0  0
  8 10  1  0  0  0  0
  8 50  1  0  0  0  0
 10 11  1  1  0  0  0
 10 12  1  0  0  0  0
 10 13  1  0  0  0  0
 13 14  1  0  0  0  0
 14 15  1  6  0  0  0
 14 27  1  0  0  0  0
 14 16  1  0  0  0  0
 16 17  1  0  0  0  0
 16 56  1  0  0  0  0
 16 57  1  0  0  0  0
 17 18  1  6  0  0  0
 17 19  1  0  0  0  0
 17 49  1  0  0  0  0
 19 26  1  0  0  0  0
 19 20  1  0  0  0  0
 19 47  1  1  0  0  0
 20 21  1  6  0  0  0
 20 36  1  0  0  0  0
 20 22  1  0  0  0  0
 22 23  1  1  0  0  0
 22 24  1  0  0  0  0
 22 29  1  0  0  0  0
 24 25  1  0  0  0  0
 24 58  1  0  0  0  0
 24 59  1  0  0  0  0
 25 26  1  0  0  0  0
 25 60  1  0  0  0  0
 25 61  1  0  0  0  0
 26 27  1  0  0  0  0
 26 28  1  1  0  0  0
 27 62  1  0  0  0  0
 27 63  1  0  0  0  0
 28 64  1  0  0  0  0
 29 34  1  0  0  0  0
 29 30  1  0  0  0  0
 29 46  1  1  0  0  0
 30 31  1  0  0  0  0
 30 65  1  0  0  0  0
 30 66  1  0  0  0  0
 31 32  1  0  0  0  0
 31 67  1  0  0  0  0
 31 68  1  0  0  0  0
 32 33  1  6  0  0  0
 32 34  1  0  0  0  0
 32 40  1  0  0  0  0
 34 35  1  0  0  0  0
 34 39  1  1  0  0  0
 35 36  1  0  0  0  0
 35 69  1  0  0  0  0
 35 70  1  0  0  0  0
 36 37  1  1  0  0  0
 36 38  1  0  0  0  0
 38 71  1  0  0  0  0
 39 72  1  0  0  0  0
 39 73  1  0  0  0  0
 39 74  1  0  0  0  0
 40 45  1  0  0  0  0
 40 41  2  0  0  0  0
 41 42  1  0  0  0  0
 41 75  1  0  0  0  0
 42 43  2  0  0  0  0
 42 44  1  0  0  0  0
 44 45  1  0  0  0  0
 45 76  1  0  0  0  0
 45 77  1  0  0  0  0
 46 78  1  0  0  0  0
 47 48  1  0  0  0  0
 47 79  1  0  0  0  0
 47 80  1  0  0  0  0
 48 81  1  0  0  0  0
 49 82  1  0  0  0  0
 50 83  1  0  0  0  0
 51 84  1  0  0  0  0
 52 85  1  0  0  0  0
M  END
$$$$
