ZINC01533874
 OpenBabel08292219463D

 38 40  0  0  1  0  0  0  0  0999 V2000
    2.3654    7.6135   -1.0313 C   0  0  0  0  0  0  0  0  0  0  0  0
    2.3800    7.4996   -2.4108 C   0  0  0  0  0  0  0  0  0  0  0  0
    2.3958    6.2530   -3.0077 C   0  0  0  0  0  0  0  0  0  0  0  0
    2.3967    5.1105   -2.2283 C   0  0  0  0  0  0  0  0  0  0  0  0
    2.3820    5.2202   -0.8356 C   0  0  0  0  0  0  0  0  0  0  0  0
    2.3612    6.4826   -0.2419 C   0  0  0  0  0  0  0  0  0  0  0  0
    2.3824    4.0024    0.0063 C   0  0  0  0  0  0  0  0  0  0  0  0
    3.4111    3.7932    0.7498 N   0  0  0  0  0  0  0  0  0  0  0  0
    3.5141    2.6167    1.6121 C   0  0  2  0  0  0  0  0  0  0  0  0
    4.4322    2.6699    2.1972 H   0  0  0  0  0  0  0  0  0  0  0  0
    3.5357    1.3827    0.7519 C   0  0  0  0  0  0  0  0  0  0  0  0
    4.5215    0.6762    0.7573 O   0  0  0  0  0  0  0  0  0  0  0  0
    2.5010    1.0459   -0.0146 N   0  0  0  0  0  0  0  0  0  0  0  0
    1.2968    1.7310   -0.0752 C   0  0  0  0  0  0  0  0  0  0  0  0
    1.2065    3.1215   -0.0708 C   0  0  0  0  0  0  0  0  0  0  0  0
   -0.0565    3.7284   -0.1403 C   0  0  0  0  0  0  0  0  0  0  0  0
   -1.1979    2.9615   -0.2100 C   0  0  0  0  0  0  0  0  0  0  0  0
   -1.1045    1.5789   -0.2176 C   0  0  0  0  0  0  0  0  0  0  0  0
    0.1289    0.9693   -0.1461 C   0  0  0  0  0  0  0  0  0  0  0  0
   -2.7539    3.7267   -0.2951 Cl  0  0  0  0  0  0  0  0  0  0  0  0
    2.6457   -0.1412   -0.8608 C   0  0  0  0  0  0  0  0  0  0  0  0
    3.2175    0.2678   -2.2197 C   0  0  0  0  0  0  0  0  0  0  0  0
    3.3630   -0.9250   -3.0699 C   0  0  0  0  0  0  0  0  0  0  0  0
    3.4752   -1.8455   -3.7261 N   0  0  0  0  0  0  0  0  0  0  0  0
    2.3885    2.5676    2.4912 O   0  0  0  0  0  0  0  0  0  0  0  0
    2.4112    3.8922   -2.8118 F   0  0  0  0  0  0  0  0  0  0  0  0
    2.3527    8.5908   -0.5719 H   0  0  0  0  0  0  0  0  0  0  0  0
    2.3786    8.3890   -3.0235 H   0  0  0  0  0  0  0  0  0  0  0  0
    2.4071    6.1710   -4.0845 H   0  0  0  0  0  0  0  0  0  0  0  0
    2.3453    6.5741    0.8341 H   0  0  0  0  0  0  0  0  0  0  0  0
   -0.1341    4.8056   -0.1395 H   0  0  0  0  0  0  0  0  0  0  0  0
   -2.0002    0.9782   -0.2755 H   0  0  0  0  0  0  0  0  0  0  0  0
    0.1933   -0.1087   -0.1495 H   0  0  0  0  0  0  0  0  0  0  0  0
    3.3211   -0.8495   -0.3807 H   0  0  0  0  0  0  0  0  0  0  0  0
    1.6708   -0.6076   -1.0023 H   0  0  0  0  0  0  0  0  0  0  0  0
    2.5422    0.9760   -2.6998 H   0  0  0  0  0  0  0  0  0  0  0  0
    4.1925    0.7341   -2.0782 H   0  0  0  0  0  0  0  0  0  0  0  0
    2.3126    3.3339    3.0761 H   0  0  0  0  0  0  0  0  0  0  0  0
  1  6  2  0  0  0  0
  1  2  1  0  0  0  0
  1 27  1  0  0  0  0
  2  3  2  0  0  0  0
  2 28  1  0  0  0  0
  3  4  1  0  0  0  0
  3 29  1  0  0  0  0
  4  5  2  0  0  0  0
  4 26  1  0  0  0  0
  5  6  1  0  0  0  0
  5  7  1  0  0  0  0
  6 30  1  0  0  0  0
  7 15  1  0  0  0  0
  7  8  2  0  0  0  0
  8  9  1  0  0  0  0
  9 10  1  1  0  0  0
  9 11  1  0  0  0  0
  9 25  1  0  0  0  0
 11 12  2  0  0  0  0
 11 13  1  0  0  0  0
 13 14  1  0  0  0  0
 13 21  1  0  0  0  0
 14 19  2  0  0  0  0
 14 15  1  0  0  0  0
 15 16  2  0  0  0  0
 16 17  1  0  0  0  0
 16 31  1  0  0  0  0
 17 18  2  0  0  0  0
 17 20  1  0  0  0  0
 18 19  1  0  0  0  0
 18 32  1  0  0  0  0
 19 33  1  0  0  0  0
 21 22  1  0  0  0  0
 21 34  1  0  0  0  0
 21 35  1  0  0  0  0
 22 23  1  0  0  0  0
 22 36  1  0  0  0  0
 22 37  1  0  0  0  0
 23 24  3  0  0  0  0
 25 38  1  0  0  0  0
M  END
$$$$
