ZINC02036972
 OpenBabel08292219463D

 30 29  0  0  1  0  0  0  0  0999 V2000
   -2.3259    0.1092    0.2428 C   0  0  0  0  0  0  0  0  0  0  0  0
   -2.4022    1.6202    0.0145 C   0  0  1  0  0  0  0  0  0  0  0  0
   -2.9860    1.8229   -0.8834 H   0  0  0  0  0  0  0  0  0  0  0  0
   -3.0715    2.2849    1.2191 C   0  0  0  0  0  0  0  0  0  0  0  0
   -3.2607    3.7770    0.9384 C   0  0  0  0  0  0  0  0  0  0  0  0
   -3.9200    4.4317    2.1249 C   0  0  0  0  0  0  0  0  0  0  0  0
   -3.3230    5.4205    2.7429 C   0  0  0  0  0  0  0  0  0  0  0  0
   -1.9222    5.8167    2.3531 C   0  0  0  0  0  0  0  0  0  0  0  0
   -4.0371    6.1619    3.8435 C   0  0  0  0  0  0  0  0  0  0  0  0
   -0.5965    2.0351   -1.5444 C   0  0  0  0  0  0  0  0  0  0  0  0
   -1.8490   -0.3643   -0.6154 H   0  0  0  0  0  0  0  0  0  0  0  0
   -1.7420   -0.0935    1.1406 H   0  0  0  0  0  0  0  0  0  0  0  0
   -3.3323   -0.2909    0.3658 H   0  0  0  0  0  0  0  0  0  0  0  0
   -4.0426    1.8225    1.3961 H   0  0  0  0  0  0  0  0  0  0  0  0
   -2.4426    2.1578    2.1002 H   0  0  0  0  0  0  0  0  0  0  0  0
   -2.2896    4.2393    0.7614 H   0  0  0  0  0  0  0  0  0  0  0  0
   -3.8896    3.9041    0.0573 H   0  0  0  0  0  0  0  0  0  0  0  0
   -4.8846    4.0856    2.4657 H   0  0  0  0  0  0  0  0  0  0  0  0
   -1.9608    6.5025    1.5068 H   0  0  0  0  0  0  0  0  0  0  0  0
   -1.4355    6.3070    3.1962 H   0  0  0  0  0  0  0  0  0  0  0  0
   -1.3573    4.9271    2.0745 H   0  0  0  0  0  0  0  0  0  0  0  0
   -3.8304    5.6805    4.7994 H   0  0  0  0  0  0  0  0  0  0  0  0
   -3.6869    7.1937    3.8732 H   0  0  0  0  0  0  0  0  0  0  0  0
   -5.1104    6.1478    3.6542 H   0  0  0  0  0  0  0  0  0  0  0  0
   -0.5923    0.9839   -1.8324 H   0  0  0  0  0  0  0  0  0  0  0  0
    0.4103    2.4418   -1.6391 H   0  0  0  0  0  0  0  0  0  0  0  0
   -1.2742    2.5875   -2.1954 H   0  0  0  0  0  0  0  0  0  0  0  0
   -1.0400    2.1637   -0.1434 N   0  3  0  0  0  0  0  0  0  0  0  0
   -0.3957    1.6447    0.4648 H   0  0  0  0  0  0  0  0  0  0  0  0
   -1.0380    3.1553    0.1228 H   0  0  0  0  0  0  0  0  0  0  0  0
  1  2  1  0  0  0  0
  1 11  1  0  0  0  0
  1 12  1  0  0  0  0
  1 13  1  0  0  0  0
  2  3  1  6  0  0  0
  2  4  1  0  0  0  0
  2 28  1  0  0  0  0
  4  5  1  0  0  0  0
  4 14  1  0  0  0  0
  4 15  1  0  0  0  0
  5  6  1  0  0  0  0
  5 16  1  0  0  0  0
  5 17  1  0  0  0  0
  6  7  2  0  0  0  0
  6 18  1  0  0  0  0
  7  8  1  0  0  0  0
  7  9  1  0  0  0  0
  8 19  1  0  0  0  0
  8 20  1  0  0  0  0
  8 21  1  0  0  0  0
  9 22  1  0  0  0  0
  9 23  1  0  0  0  0
  9 24  1  0  0  0  0
 10 25  1  0  0  0  0
 10 26  1  0  0  0  0
 10 27  1  0  0  0  0
 10 28  1  0  0  0  0
 28 29  1  0  0  0  0
 28 30  1  0  0  0  0
M  CHG  1  28   1
M  END
$$$$
