ZINC38141759
 OpenBabel08292219463D

 32 32  0  0  1  0  0  0  0  0999 V2000
   -0.0187    1.5258    0.0104 C   0  0  0  0  0  0  0  0  0  0  0  0
    0.0021   -0.0041    0.0020 C   0  0  1  0  0  0  0  0  0  0  0  0
    0.5123   -0.3556   -0.8948 H   0  0  0  0  0  0  0  0  0  0  0  0
    0.7309   -0.5033    1.2229 C   0  0  0  0  0  0  0  0  0  0  0  0
    0.2630   -0.1872    2.4847 C   0  0  0  0  0  0  0  0  0  0  0  0
    0.9315   -0.6452    3.6046 C   0  0  0  0  0  0  0  0  0  0  0  0
    2.0678   -1.4195    3.4627 C   0  0  0  0  0  0  0  0  0  0  0  0
    2.5353   -1.7363    2.2010 C   0  0  0  0  0  0  0  0  0  0  0  0
    1.8643   -1.2820    1.0811 C   0  0  0  0  0  0  0  0  0  0  0  0
    2.7973   -1.9179    4.6836 C   0  0  0  0  0  0  0  0  0  0  0  0
    2.2317   -3.2785    5.0956 C   0  0  0  0  0  0  0  0  0  0  0  0
    2.5261   -4.3059    4.0007 C   0  0  0  0  0  0  0  0  0  0  0  0
    2.8845   -3.7270    6.4047 C   0  0  0  0  0  0  0  0  0  0  0  0
   -1.4117   -0.5257    0.0127 C   0  0  0  0  0  0  0  0  0  0  0  0
   -1.7102   -1.4919   -0.6684 O   0  0  0  0  0  0  0  0  0  0  0  0
   -2.2571    0.0185    0.7025 O   0  0  0  0  0  1  0  0  0  0  0  0
    1.0039    1.9031    0.0027 H   0  0  0  0  0  0  0  0  0  0  0  0
   -0.5459    1.8868   -0.8726 H   0  0  0  0  0  0  0  0  0  0  0  0
   -0.5289    1.8773    0.9072 H   0  0  0  0  0  0  0  0  0  0  0  0
   -0.6248    0.4177    2.5955 H   0  0  0  0  0  0  0  0  0  0  0  0
    0.5663   -0.3977    4.5903 H   0  0  0  0  0  0  0  0  0  0  0  0
    3.4233   -2.3410    2.0902 H   0  0  0  0  0  0  0  0  0  0  0  0
    2.2274   -1.5326    0.0953 H   0  0  0  0  0  0  0  0  0  0  0  0
    3.8586   -2.0192    4.4567 H   0  0  0  0  0  0  0  0  0  0  0  0
    2.6665   -1.2077    5.5001 H   0  0  0  0  0  0  0  0  0  0  0  0
    1.1540   -3.1964    5.2365 H   0  0  0  0  0  0  0  0  0  0  0  0
    2.1232   -5.2752    4.2942 H   0  0  0  0  0  0  0  0  0  0  0  0
    2.0610   -3.9864    3.0682 H   0  0  0  0  0  0  0  0  0  0  0  0
    3.6038   -4.3880    3.8598 H   0  0  0  0  0  0  0  0  0  0  0  0
    2.6748   -2.9951    7.1847 H   0  0  0  0  0  0  0  0  0  0  0  0
    2.4816   -4.6963    6.6982 H   0  0  0  0  0  0  0  0  0  0  0  0
    3.9623   -3.8091    6.2637 H   0  0  0  0  0  0  0  0  0  0  0  0
  1  2  1  0  0  0  0
  1 17  1  0  0  0  0
  1 18  1  0  0  0  0
  1 19  1  0  0  0  0
  2  3  1  6  0  0  0
  2  4  1  0  0  0  0
  2 14  1  0  0  0  0
  4  9  2  0  0  0  0
  4  5  1  0  0  0  0
  5  6  2  0  0  0  0
  5 20  1  0  0  0  0
  6  7  1  0  0  0  0
  6 21  1  0  0  0  0
  7  8  2  0  0  0  0
  7 10  1  0  0  0  0
  8  9  1  0  0  0  0
  8 22  1  0  0  0  0
  9 23  1  0  0  0  0
 10 11  1  0  0  0  0
 10 24  1  0  0  0  0
 10 25  1  0  0  0  0
 11 12  1  0  0  0  0
 11 13  1  0  0  0  0
 11 26  1  0  0  0  0
 12 27  1  0  0  0  0
 12 28  1  0  0  0  0
 12 29  1  0  0  0  0
 13 30  1  0  0  0  0
 13 31  1  0  0  0  0
 13 32  1  0  0  0  0
 14 15  2  0  0  0  0
 14 16  1  0  0  0  0
M  END
$$$$
