ZINC30690638
 OpenBabel08292219463D

 41 42  0  0  0  0  0  0  0  0999 V2000
   -2.0531   -1.9285    2.4163 C   0  0  0  0  0  0  0  0  0  0  0  0
   -2.2070   -2.6172    3.6034 C   0  0  0  0  0  0  0  0  0  0  0  0
   -2.3201   -3.9954    3.5953 C   0  0  0  0  0  0  0  0  0  0  0  0
   -2.2847   -4.6882    2.3990 C   0  0  0  0  0  0  0  0  0  0  0  0
   -2.1363   -4.0052    1.2078 C   0  0  0  0  0  0  0  0  0  0  0  0
   -2.0224   -2.6208    1.2124 C   0  0  0  0  0  0  0  0  0  0  0  0
   -1.8717   -1.9269    0.0096 N   0  0  0  0  0  0  0  0  0  0  0  0
   -1.7518   -0.4668    0.0163 C   0  0  0  0  0  0  0  0  0  0  0  0
    0.0021   -0.0041    0.0020 S   0  0  1  0  0  0  0  0  0  0  0  0
    0.5685   -0.3333   -1.2589 O   0  0  0  0  0  0  0  0  0  0  0  0
   -0.0186    1.5178    0.0104 O   0  0  0  0  0  0  0  0  0  0  0  0
   -2.5102   -4.8708    5.1126 S   0  0  0  0  0  0  0  0  0  0  0  0
   -3.0607   -3.9513    6.0457 O   0  0  0  0  0  0  0  0  0  0  0  0
   -3.1419   -6.1031    4.7941 O   0  0  0  0  0  0  0  0  0  0  0  0
   -0.8939   -5.2681    5.6909 C   0  0  0  0  0  0  0  0  0  0  0  0
   -0.3024   -6.4616    5.3196 C   0  0  0  0  0  0  0  0  0  0  0  0
    0.9666   -6.7736    5.7665 C   0  0  0  0  0  0  0  0  0  0  0  0
    1.6443   -5.8920    6.5990 C   0  0  0  0  0  0  0  0  0  0  0  0
    1.0449   -4.6964    6.9746 C   0  0  0  0  0  0  0  0  0  0  0  0
   -0.2220   -4.3881    6.5195 C   0  0  0  0  0  0  0  0  0  0  0  0
    2.9258   -6.2067    7.0570 N   0  0  0  0  0  0  0  0  0  0  0  0
    3.5563   -7.4680    6.6599 C   0  0  0  0  0  0  0  0  0  0  0  0
    4.6131   -7.1863    5.2126 S   0  0  1  0  0  0  0  0  0  0  0  0
    5.7400   -6.4088    5.5931 O   0  0  0  0  0  0  0  0  0  0  0  0
    5.1976   -8.5588    4.9108 O   0  0  0  0  0  0  0  0  0  0  0  0
   -1.9604   -0.8525    2.4237 H   0  0  0  0  0  0  0  0  0  0  0  0
   -2.2350   -2.0793    4.5394 H   0  0  0  0  0  0  0  0  0  0  0  0
   -2.3729   -5.7646    2.3962 H   0  0  0  0  0  0  0  0  0  0  0  0
   -2.1091   -4.5468    0.2739 H   0  0  0  0  0  0  0  0  0  0  0  0
   -1.8430   -2.4767   -0.9427 H   0  0  0  0  0  0  0  0  0  0  0  0
   -2.2472   -0.0541   -0.8749 H   0  0  0  0  0  0  0  0  0  0  0  0
   -2.2300   -0.0638    0.9212 H   0  0  0  0  0  0  0  0  0  0  0  0
    0.9264    2.0807    0.0044 H   0  0  0  0  0  0  0  0  0  0  0  0
   -0.8318   -7.1488    4.6762 H   0  0  0  0  0  0  0  0  0  0  0  0
    1.4298   -7.7039    5.4726 H   0  0  0  0  0  0  0  0  0  0  0  0
    1.5690   -4.0089    7.6220 H   0  0  0  0  0  0  0  0  0  0  0  0
   -0.6884   -3.4587    6.8108 H   0  0  0  0  0  0  0  0  0  0  0  0
    3.4616   -5.5075    7.7158 H   0  0  0  0  0  0  0  0  0  0  0  0
    4.1670   -7.8502    7.4911 H   0  0  0  0  0  0  0  0  0  0  0  0
    2.7782   -8.2036    6.4082 H   0  0  0  0  0  0  0  0  0  0  0  0
    5.8896   -8.6882    4.0655 H   0  0  0  0  0  0  0  0  0  0  0  0
  1  6  2  0  0  0  0
  1  2  1  0  0  0  0
  1 26  1  0  0  0  0
  2  3  2  0  0  0  0
  2 27  1  0  0  0  0
  3  4  1  0  0  0  0
  3 12  1  0  0  0  0
  4  5  2  0  0  0  0
  4 28  1  0  0  0  0
  5  6  1  0  0  0  0
  5 29  1  0  0  0  0
  6  7  1  0  0  0  0
  7  8  1  0  0  0  0
  7 30  1  0  0  0  0
  8  9  1  0  0  0  0
  8 31  1  0  0  0  0
  8 32  1  0  0  0  0
  9 10  2  6  0  0  0
  9 11  1  0  0  0  0
 11 33  1  0  0  0  0
 12 13  2  0  0  0  0
 12 14  2  0  0  0  0
 12 15  1  0  0  0  0
 15 20  2  0  0  0  0
 15 16  1  0  0  0  0
 16 17  2  0  0  0  0
 16 34  1  0  0  0  0
 17 18  1  0  0  0  0
 17 35  1  0  0  0  0
 18 19  2  0  0  0  0
 18 21  1  0  0  0  0
 19 20  1  0  0  0  0
 19 36  1  0  0  0  0
 20 37  1  0  0  0  0
 21 22  1  0  0  0  0
 21 38  1  0  0  0  0
 22 23  1  0  0  0  0
 22 39  1  0  0  0  0
 22 40  1  0  0  0  0
 23 24  2  1  0  0  0
 23 25  1  0  0  0  0
 25 41  1  0  0  0  0
M  END
$$$$
