ZINC49841054
 OpenBabel08292219463D

109112  0  0  1  0  0  0  0  0999 V2000
    1.9859   -0.9549    0.6718 C   0  0  0  0  0  0  0  0  0  0  0  0
    1.1066   -2.1867    0.4477 C   0  0  0  0  0  0  0  0  0  0  0  0
    1.3438   -3.1945    1.5743 C   0  0  0  0  0  0  0  0  0  0  0  0
   -0.3650   -1.7682    0.4395 C   0  0  0  0  0  0  0  0  0  0  0  0
   -1.2370   -2.9764    0.0920 C   0  0  1  0  0  0  0  0  0  0  0  0
   -1.0314   -3.7862    0.7920 H   0  0  0  0  0  0  0  0  0  0  0  0
   -2.6907   -2.5899    0.1839 C   0  0  0  0  0  0  0  0  0  0  0  0
   -3.3041   -2.3048   -0.8165 O   0  0  0  0  0  0  0  0  0  0  0  0
   -3.3789   -2.5591    1.5242 C   0  0  1  0  0  0  0  0  0  0  0  0
   -4.2973   -3.7296    1.8811 C   0  0  0  0  0  0  0  0  0  0  0  0
   -3.0135   -3.5534    2.4833 O   0  0  0  0  0  0  0  0  0  0  0  0
   -3.7563   -1.1709    2.0450 C   0  0  0  0  0  0  0  0  0  0  0  0
   -0.9351   -3.4207   -1.2710 N   0  0  0  0  0  0  0  0  0  0  0  0
   -1.1643   -4.6996   -1.6292 C   0  0  0  0  0  0  0  0  0  0  0  0
   -1.6206   -5.4826   -0.8232 O   0  0  0  0  0  0  0  0  0  0  0  0
   -0.8537   -5.1566   -3.0313 C   0  0  2  0  0  0  0  0  0  0  0  0
    0.2076   -5.0127   -3.2336 H   0  0  0  0  0  0  0  0  0  0  0  0
   -1.6783   -4.3400   -4.0283 C   0  0  0  0  0  0  0  0  0  0  0  0
   -1.2788   -4.7107   -5.4333 C   0  0  0  0  0  0  0  0  0  0  0  0
   -0.2563   -4.0271   -6.0643 C   0  0  0  0  0  0  0  0  0  0  0  0
    0.1102   -4.3672   -7.3530 C   0  0  0  0  0  0  0  0  0  0  0  0
   -0.5455   -5.3912   -8.0106 C   0  0  0  0  0  0  0  0  0  0  0  0
   -1.5673   -6.0754   -7.3793 C   0  0  0  0  0  0  0  0  0  0  0  0
   -1.9310   -5.7382   -6.0890 C   0  0  0  0  0  0  0  0  0  0  0  0
   -1.1888   -6.5762   -3.1676 N   0  0  0  0  0  0  0  0  0  0  0  0
   -0.5692   -7.3285   -4.0986 C   0  0  0  0  0  0  0  0  0  0  0  0
    0.2657   -6.8301   -4.8235 O   0  0  0  0  0  0  0  0  0  0  0  0
   -0.9138   -8.7888   -4.2388 C   0  0  2  0  0  0  0  0  0  0  0  0
   -1.9720   -8.8909   -4.4794 H   0  0  0  0  0  0  0  0  0  0  0  0
   -0.6178   -9.5113   -2.9231 C   0  0  0  0  0  0  0  0  0  0  0  0
   -1.0830  -10.9654   -3.0238 C   0  0  0  0  0  0  0  0  0  0  0  0
   -0.6756  -11.7202   -1.7568 C   0  0  0  0  0  0  0  0  0  0  0  0
   -2.6051  -11.0047   -3.1737 C   0  0  0  0  0  0  0  0  0  0  0  0
   -0.1099   -9.3794   -5.3118 N   0  0  0  0  0  0  0  0  0  0  0  0
   -0.5536  -10.4732   -5.9623 C   0  0  0  0  0  0  0  0  0  0  0  0
   -1.6184  -10.9686   -5.6594 O   0  0  0  0  0  0  0  0  0  0  0  0
    0.2733  -11.0807   -7.0660 C   0  0  2  0  0  0  0  0  0  0  0  0
    1.2417  -11.3852   -6.6689 H   0  0  0  0  0  0  0  0  0  0  0  0
    0.4791  -10.0485   -8.1764 C   0  0  0  0  0  0  0  0  0  0  0  0
    1.4206  -10.6216   -9.2374 C   0  0  0  0  0  0  0  0  0  0  0  0
    1.6233   -9.6049  -10.3311 C   0  0  0  0  0  0  0  0  0  0  0  0
    0.7735   -9.5835  -11.4212 C   0  0  0  0  0  0  0  0  0  0  0  0
    0.9594   -8.6509  -12.4244 C   0  0  0  0  0  0  0  0  0  0  0  0
    1.9949   -7.7393  -12.3374 C   0  0  0  0  0  0  0  0  0  0  0  0
    2.8442   -7.7600  -11.2469 C   0  0  0  0  0  0  0  0  0  0  0  0
    2.6557   -8.6899  -10.2416 C   0  0  0  0  0  0  0  0  0  0  0  0
   -0.4214  -12.2505   -7.6093 N   0  0  0  0  0  0  0  0  0  0  0  0
    0.2798  -13.2305   -8.2131 C   0  0  0  0  0  0  0  0  0  0  0  0
    1.4859  -13.1439   -8.3065 O   0  0  0  0  0  0  0  0  0  0  0  0
   -0.4348  -14.4338   -8.7720 C   0  0  0  0  0  0  0  0  0  0  0  0
    0.5442  -15.3491   -9.3734 N   0  0  0  0  0  0  0  0  0  0  0  0
    1.1740  -14.7440  -10.5560 C   0  0  0  0  0  0  0  0  0  0  0  0
    2.2270  -15.7048  -11.1145 C   0  0  0  0  0  0  0  0  0  0  0  0
    1.6096  -16.9599  -11.4125 O   0  0  0  0  0  0  0  0  0  0  0  0
    0.9868  -17.5777  -10.2829 C   0  0  0  0  0  0  0  0  0  0  0  0
   -0.0788  -16.6359   -9.7160 C   0  0  0  0  0  0  0  0  0  0  0  0
    3.0343   -1.2531    0.6777 H   0  0  0  0  0  0  0  0  0  0  0  0
    1.8169   -0.2370   -0.1307 H   0  0  0  0  0  0  0  0  0  0  0  0
    1.7330   -0.4971    1.6281 H   0  0  0  0  0  0  0  0  0  0  0  0
    1.3595   -2.6446   -0.5086 H   0  0  0  0  0  0  0  0  0  0  0  0
    0.7174   -4.0721    1.4146 H   0  0  0  0  0  0  0  0  0  0  0  0
    2.3922   -3.4927    1.5801 H   0  0  0  0  0  0  0  0  0  0  0  0
    1.0910   -2.7367    2.5306 H   0  0  0  0  0  0  0  0  0  0  0  0
   -0.6413   -1.3920    1.4245 H   0  0  0  0  0  0  0  0  0  0  0  0
   -0.5160   -0.9854   -0.3039 H   0  0  0  0  0  0  0  0  0  0  0  0
   -5.1769   -3.5180    2.4891 H   0  0  0  0  0  0  0  0  0  0  0  0
   -4.4093   -4.5289    1.1485 H   0  0  0  0  0  0  0  0  0  0  0  0
   -4.4371   -0.6916    1.3415 H   0  0  0  0  0  0  0  0  0  0  0  0
   -4.2445   -1.2670    3.0148 H   0  0  0  0  0  0  0  0  0  0  0  0
   -2.8563   -0.5650    2.1498 H   0  0  0  0  0  0  0  0  0  0  0  0
   -0.5701   -2.7944   -1.9156 H   0  0  0  0  0  0  0  0  0  0  0  0
   -2.7376   -4.5524   -3.8838 H   0  0  0  0  0  0  0  0  0  0  0  0
   -1.4955   -3.2776   -3.8669 H   0  0  0  0  0  0  0  0  0  0  0  0
    0.2560   -3.2271   -5.5505 H   0  0  0  0  0  0  0  0  0  0  0  0
    0.9086   -3.8327   -7.8462 H   0  0  0  0  0  0  0  0  0  0  0  0
   -0.2596   -5.6565   -9.0178 H   0  0  0  0  0  0  0  0  0  0  0  0
   -2.0798   -6.8752   -7.8932 H   0  0  0  0  0  0  0  0  0  0  0  0
   -2.7268   -6.2752   -5.5944 H   0  0  0  0  0  0  0  0  0  0  0  0
   -1.8565   -6.9748   -2.5878 H   0  0  0  0  0  0  0  0  0  0  0  0
    0.4542   -9.4855   -2.7275 H   0  0  0  0  0  0  0  0  0  0  0  0
   -1.1476   -9.0159   -2.1094 H   0  0  0  0  0  0  0  0  0  0  0  0
   -0.6202  -11.4356   -3.8915 H   0  0  0  0  0  0  0  0  0  0  0  0
   -1.1384  -11.2499   -0.8892 H   0  0  0  0  0  0  0  0  0  0  0  0
   -1.0070  -12.7561   -1.8286 H   0  0  0  0  0  0  0  0  0  0  0  0
    0.4088  -11.6922   -1.6501 H   0  0  0  0  0  0  0  0  0  0  0  0
   -2.8954  -10.4670   -4.0764 H   0  0  0  0  0  0  0  0  0  0  0  0
   -2.9365  -12.0406   -3.2455 H   0  0  0  0  0  0  0  0  0  0  0  0
   -3.0679  -10.5345   -2.3061 H   0  0  0  0  0  0  0  0  0  0  0  0
    0.7417   -8.9832   -5.5540 H   0  0  0  0  0  0  0  0  0  0  0  0
   -0.4813   -9.8101   -8.6334 H   0  0  0  0  0  0  0  0  0  0  0  0
    0.9154   -9.1431   -7.7544 H   0  0  0  0  0  0  0  0  0  0  0  0
    2.3810  -10.8600   -8.7804 H   0  0  0  0  0  0  0  0  0  0  0  0
    0.9843  -11.5270   -9.6594 H   0  0  0  0  0  0  0  0  0  0  0  0
   -0.0355  -10.2958  -11.4892 H   0  0  0  0  0  0  0  0  0  0  0  0
    0.2959   -8.6347  -13.2764 H   0  0  0  0  0  0  0  0  0  0  0  0
    2.1406   -7.0111  -13.1215 H   0  0  0  0  0  0  0  0  0  0  0  0
    3.6534   -7.0480  -11.1790 H   0  0  0  0  0  0  0  0  0  0  0  0
    3.3169   -8.7037   -9.3878 H   0  0  0  0  0  0  0  0  0  0  0  0
   -1.3860  -12.3198   -7.5346 H   0  0  0  0  0  0  0  0  0  0  0  0
   -0.9661  -14.9460   -7.9698 H   0  0  0  0  0  0  0  0  0  0  0  0
   -1.1469  -14.1128   -9.5323 H   0  0  0  0  0  0  0  0  0  0  0  0
    0.4154  -14.5541  -11.3153 H   0  0  0  0  0  0  0  0  0  0  0  0
    1.6509  -13.8052  -10.2742 H   0  0  0  0  0  0  0  0  0  0  0  0
    2.6563  -15.2853  -12.0244 H   0  0  0  0  0  0  0  0  0  0  0  0
    3.0137  -15.8527  -10.3747 H   0  0  0  0  0  0  0  0  0  0  0  0
    0.5192  -18.5128  -10.5913 H   0  0  0  0  0  0  0  0  0  0  0  0
    1.7374  -17.7801   -9.5189 H   0  0  0  0  0  0  0  0  0  0  0  0
   -0.5164  -17.0781   -8.8210 H   0  0  0  0  0  0  0  0  0  0  0  0
   -0.8574  -16.4762  -10.4618 H   0  0  0  0  0  0  0  0  0  0  0  0
  1  2  1  0  0  0  0
  1 57  1  0  0  0  0
  1 58  1  0  0  0  0
  1 59  1  0  0  0  0
  2  3  1  0  0  0  0
  2  4  1  0  0  0  0
  2 60  1  0  0  0  0
  3 61  1  0  0  0  0
  3 62  1  0  0  0  0
  3 63  1  0  0  0  0
  4  5  1  0  0  0  0
  4 64  1  0  0  0  0
  4 65  1  0  0  0  0
  5  6  1  1  0  0  0
  5  7  1  0  0  0  0
  5 13  1  0  0  0  0
  7  8  2  0  0  0  0
  9  7  1  6  0  0  0
  9 11  1  0  0  0  0
  9 10  1  0  0  0  0
  9 12  1  0  0  0  0
 10 11  1  0  0  0  0
 10 66  1  0  0  0  0
 10 67  1  0  0  0  0
 12 68  1  0  0  0  0
 12 69  1  0  0  0  0
 12 70  1  0  0  0  0
 13 14  1  0  0  0  0
 13 71  1  0  0  0  0
 14 15  2  0  0  0  0
 14 16  1  0  0  0  0
 16 17  1  6  0  0  0
 16 18  1  0  0  0  0
 16 25  1  0  0  0  0
 18 19  1  0  0  0  0
 18 72  1  0  0  0  0
 18 73  1  0  0  0  0
 19 24  2  0  0  0  0
 19 20  1  0  0  0  0
 20 21  2  0  0  0  0
 20 74  1  0  0  0  0
 21 22  1  0  0  0  0
 21 75  1  0  0  0  0
 22 23  2  0  0  0  0
 22 76  1  0  0  0  0
 23 24  1  0  0  0  0
 23 77  1  0  0  0  0
 24 78  1  0  0  0  0
 25 26  1  0  0  0  0
 25 79  1  0  0  0  0
 26 27  2  0  0  0  0
 26 28  1  0  0  0  0
 28 29  1  6  0  0  0
 28 30  1  0  0  0  0
 28 34  1  0  0  0  0
 30 31  1  0  0  0  0
 30 80  1  0  0  0  0
 30 81  1  0  0  0  0
 31 32  1  0  0  0  0
 31 33  1  0  0  0  0
 31 82  1  0  0  0  0
 32 83  1  0  0  0  0
 32 84  1  0  0  0  0
 32 85  1  0  0  0  0
 33 86  1  0  0  0  0
 33 87  1  0  0  0  0
 33 88  1  0  0  0  0
 34 35  1  0  0  0  0
 34 89  1  0  0  0  0
 35 36  2  0  0  0  0
 35 37  1  0  0  0  0
 37 38  1  1  0  0  0
 37 39  1  0  0  0  0
 37 47  1  0  0  0  0
 39 40  1  0  0  0  0
 39 90  1  0  0  0  0
 39 91  1  0  0  0  0
 40 41  1  0  0  0  0
 40 92  1  0  0  0  0
 40 93  1  0  0  0  0
 41 46  2  0  0  0  0
 41 42  1  0  0  0  0
 42 43  2  0  0  0  0
 42 94  1  0  0  0  0
 43 44  1  0  0  0  0
 43 95  1  0  0  0  0
 44 45  2  0  0  0  0
 44 96  1  0  0  0  0
 45 46  1  0  0  0  0
 45 97  1  0  0  0  0
 46 98  1  0  0  0  0
 47 48  1  0  0  0  0
 47 99  1  0  0  0  0
 48 49  2  0  0  0  0
 48 50  1  0  0  0  0
 50 51  1  0  0  0  0
 50100  1  0  0  0  0
 50101  1  0  0  0  0
 51 56  1  0  0  0  0
 51 52  1  0  0  0  0
 52 53  1  0  0  0  0
 52102  1  0  0  0  0
 52103  1  0  0  0  0
 53 54  1  0  0  0  0
 53104  1  0  0  0  0
 53105  1  0  0  0  0
 54 55  1  0  0  0  0
 55 56  1  0  0  0  0
 55106  1  0  0  0  0
 55107  1  0  0  0  0
 56108  1  0  0  0  0
 56109  1  0  0  0  0
M  END
$$$$
