ZINC03977942
 OpenBabel08292219463D

 54 57  0  0  1  0  0  0  0  0999 V2000
   -6.3340   -4.5060    5.6532 C   0  0  0  0  0  0  0  0  0  0  0  0
   -7.0099   -3.4636    4.8767 N   0  0  0  0  0  0  0  0  0  0  0  0
   -6.4487   -2.5964    4.0014 C   0  0  0  0  0  0  0  0  0  0  0  0
   -7.4177   -1.8422    3.5293 N   0  0  0  0  0  0  0  0  0  0  0  0
   -8.5422   -2.1748    4.0528 N   0  0  0  0  0  0  0  0  0  0  0  0
   -8.3798   -3.1477    4.8828 N   0  0  0  0  0  0  0  0  0  0  0  0
   -4.7430   -2.5009    3.5702 S   0  0  0  0  0  0  0  0  0  0  0  0
   -4.7962   -1.1415    2.3763 C   0  0  0  0  0  0  0  0  0  0  0  0
   -3.4070   -0.8743    1.8571 C   0  0  0  0  0  0  0  0  0  0  0  0
   -2.9708   -1.5832    0.7996 C   0  0  0  0  0  0  0  0  0  0  0  0
   -1.6636   -1.2299    0.3836 N   0  0  0  0  0  0  0  0  0  0  0  0
   -0.6882   -0.4898    1.2483 C   0  0  1  0  0  0  0  0  0  0  0  0
   -0.1309   -1.0816    1.9744 H   0  0  0  0  0  0  0  0  0  0  0  0
    0.0040   -0.2554   -0.0842 C   0  0  1  0  0  0  0  0  0  0  0  0
   -0.9157   -1.2747   -0.7212 C   0  0  0  0  0  0  0  0  0  0  0  0
   -0.9556   -1.8723   -1.7760 O   0  0  0  0  0  0  0  0  0  0  0  0
   -0.1870    1.1007   -0.6044 N   0  0  0  0  0  0  0  0  0  0  0  0
   -1.4297    1.5559   -0.8592 C   0  0  0  0  0  0  0  0  0  0  0  0
   -2.3899    0.8429   -0.6577 O   0  0  0  0  0  0  0  0  0  0  0  0
   -1.6262    2.9510   -1.3944 C   0  0  2  0  0  0  0  0  0  0  0  0
   -1.2217    3.6727   -0.6847 H   0  0  0  0  0  0  0  0  0  0  0  0
   -3.0975    3.2108   -1.5915 C   0  0  0  0  0  0  0  0  0  0  0  0
   -3.8281    2.4189   -2.4581 C   0  0  0  0  0  0  0  0  0  0  0  0
   -5.1781    2.6514   -2.6363 C   0  0  0  0  0  0  0  0  0  0  0  0
   -5.7982    3.6879   -1.9539 C   0  0  0  0  0  0  0  0  0  0  0  0
   -5.0617    4.4846   -1.0893 C   0  0  0  0  0  0  0  0  0  0  0  0
   -3.7133    4.2442   -0.9099 C   0  0  0  0  0  0  0  0  0  0  0  0
   -7.1248    3.9228   -2.1324 O   0  0  0  0  0  0  0  0  0  0  0  0
   -0.9106    3.0884   -2.7135 C   0  0  0  0  0  0  0  0  0  0  0  0
   -0.3034    2.1498   -3.1720 O   0  0  0  0  0  0  0  0  0  0  0  0
    1.3759   -0.6551   -0.0852 O   0  0  0  0  0  0  0  0  0  0  0  0
    2.0702   -0.3473   -1.2957 C   0  0  0  0  0  0  0  0  0  0  0  0
   -1.4427    0.6035    1.7931 O   0  0  0  0  0  0  0  0  0  0  0  0
   -2.5781    0.1677    2.5424 C   0  0  0  0  0  0  0  0  0  0  0  0
   -3.7756   -2.6259    0.1378 C   0  0  0  0  0  0  0  0  0  0  0  0
   -3.3570   -3.1725   -0.8633 O   0  0  0  0  0  0  0  0  0  0  0  0
   -6.0105   -4.0947    6.6093 H   0  0  0  0  0  0  0  0  0  0  0  0
   -7.0223   -5.3330    5.8276 H   0  0  0  0  0  0  0  0  0  0  0  0
   -5.4664   -4.8659    5.1002 H   0  0  0  0  0  0  0  0  0  0  0  0
   -5.1809   -0.2453    2.8630 H   0  0  0  0  0  0  0  0  0  0  0  0
   -5.4485   -1.4125    1.5461 H   0  0  0  0  0  0  0  0  0  0  0  0
    0.5812    1.6696   -0.7693 H   0  0  0  0  0  0  0  0  0  0  0  0
   -3.3438    1.6153   -2.9930 H   0  0  0  0  0  0  0  0  0  0  0  0
   -5.7492    2.0300   -3.3102 H   0  0  0  0  0  0  0  0  0  0  0  0
   -5.5423    5.2920   -0.5567 H   0  0  0  0  0  0  0  0  0  0  0  0
   -3.1395    4.8641   -0.2370 H   0  0  0  0  0  0  0  0  0  0  0  0
   -7.3219    4.5405   -2.8498 H   0  0  0  0  0  0  0  0  0  0  0  0
    3.1044   -0.6822   -1.2166 H   0  0  0  0  0  0  0  0  0  0  0  0
    1.5868   -0.8544   -2.1307 H   0  0  0  0  0  0  0  0  0  0  0  0
    2.0488    0.7296   -1.4630 H   0  0  0  0  0  0  0  0  0  0  0  0
   -3.2095    1.0321    2.7479 H   0  0  0  0  0  0  0  0  0  0  0  0
   -2.2284   -0.2375    3.4919 H   0  0  0  0  0  0  0  0  0  0  0  0
   -0.9478    4.2534   -3.3791 O   0  0  0  0  0  1  0  0  0  0  0  0
   -4.9758   -2.9729    0.6433 O   0  0  0  0  0  1  0  0  0  0  0  0
  1  2  1  0  0  0  0
  1 37  1  0  0  0  0
  1 38  1  0  0  0  0
  1 39  1  0  0  0  0
  2  6  1  0  0  0  0
  2  3  1  0  0  0  0
  3  4  2  0  0  0  0
  3  7  1  0  0  0  0
  4  5  1  0  0  0  0
  5  6  2  0  0  0  0
  7  8  1  0  0  0  0
  8  9  1  0  0  0  0
  8 40  1  0  0  0  0
  8 41  1  0  0  0  0
  9 34  1  0  0  0  0
  9 10  2  0  0  0  0
 10 11  1  0  0  0  0
 10 35  1  0  0  0  0
 11 15  1  0  0  0  0
 11 12  1  0  0  0  0
 12 13  1  1  0  0  0
 12 14  1  0  0  0  0
 12 33  1  0  0  0  0
 14 15  1  0  0  0  0
 14 17  1  0  0  0  0
 14 31  1  1  0  0  0
 15 16  2  0  0  0  0
 17 18  1  0  0  0  0
 17 42  1  0  0  0  0
 18 19  2  0  0  0  0
 18 20  1  0  0  0  0
 20 21  1  1  0  0  0
 20 22  1  0  0  0  0
 20 29  1  0  0  0  0
 22 27  2  0  0  0  0
 22 23  1  0  0  0  0
 23 24  2  0  0  0  0
 23 43  1  0  0  0  0
 24 25  1  0  0  0  0
 24 44  1  0  0  0  0
 25 26  2  0  0  0  0
 25 28  1  0  0  0  0
 26 27  1  0  0  0  0
 26 45  1  0  0  0  0
 27 46  1  0  0  0  0
 28 47  1  0  0  0  0
 29 30  2  0  0  0  0
 29 53  1  0  0  0  0
 31 32  1  0  0  0  0
 32 48  1  0  0  0  0
 32 49  1  0  0  0  0
 32 50  1  0  0  0  0
 33 34  1  0  0  0  0
 34 51  1  0  0  0  0
 34 52  1  0  0  0  0
 35 36  2  0  0  0  0
 35 54  1  0  0  0  0
M  END
$$$$
