ZINC13597823
 OpenBabel08292219463D

 29 31  0  0  1  0  0  0  0  0999 V2000
   -0.0163    1.3527    0.0095 C   0  0  0  0  0  0  0  0  0  0  0  0
    1.0775    2.0618    0.0028 N   0  0  0  0  0  0  0  0  0  0  0  0
    2.2842    1.4784   -0.0118 C   0  0  0  0  0  0  0  0  0  0  0  0
    2.3764    0.0832   -0.0202 C   0  0  0  0  0  0  0  0  0  0  0  0
    1.1772   -0.6720   -0.0128 C   0  0  0  0  0  0  0  0  0  0  0  0
    0.0021   -0.0041    0.0020 N   0  0  0  0  0  0  0  0  0  0  0  0
    1.2046   -1.8907   -0.0201 O   0  0  0  0  0  0  0  0  0  0  0  0
    3.6922   -0.2330   -0.0349 N   0  0  0  0  0  0  0  0  0  0  0  0
    4.3979    0.8610   -0.0360 C   0  0  0  0  0  0  0  0  0  0  0  0
    3.5704    1.9438   -0.0221 N   0  0  0  0  0  0  0  0  0  0  0  0
    3.9831    3.3495   -0.0186 C   0  0  1  0  0  0  0  0  0  0  0  0
    3.2824    3.9419   -0.6069 H   0  0  0  0  0  0  0  0  0  0  0  0
    4.0280    3.8786    1.4310 C   0  0  0  0  0  0  0  0  0  0  0  0
    5.5374    3.7623    1.7778 C   0  0  0  0  0  0  0  0  0  0  0  0
    6.1798    4.0696    0.4017 C   0  0  2  0  0  0  0  0  0  0  0  0
    6.2377    5.1465    0.2433 H   0  0  0  0  0  0  0  0  0  0  0  0
    5.3010    3.4704   -0.5664 O   0  0  0  0  0  0  0  0  0  0  0  0
    7.5739    3.4452    0.3151 C   0  0  0  0  0  0  0  0  0  0  0  0
    8.1954    3.8359   -0.9110 O   0  0  0  0  0  0  0  0  0  0  0  0
   -0.9686    1.8618    0.0259 H   0  0  0  0  0  0  0  0  0  0  0  0
    5.4770    0.9040   -0.0462 H   0  0  0  0  0  0  0  0  0  0  0  0
    3.6986    4.9167    1.4755 H   0  0  0  0  0  0  0  0  0  0  0  0
    3.4288    3.2518    2.0915 H   0  0  0  0  0  0  0  0  0  0  0  0
    5.8279    4.5043    2.5215 H   0  0  0  0  0  0  0  0  0  0  0  0
    5.7872    2.7553    2.1118 H   0  0  0  0  0  0  0  0  0  0  0  0
    8.1786    3.7886    1.1545 H   0  0  0  0  0  0  0  0  0  0  0  0
    7.4883    2.3591    0.3491 H   0  0  0  0  0  0  0  0  0  0  0  0
    9.0844    3.4756   -1.0335 H   0  0  0  0  0  0  0  0  0  0  0  0
   -0.8330   -0.4976    0.0077 H   0  0  0  0  0  0  0  0  0  0  0  0
  1  6  1  0  0  0  0
  1  2  2  0  0  0  0
  1 20  1  0  0  0  0
  2  3  1  0  0  0  0
  3 10  1  0  0  0  0
  3  4  2  0  0  0  0
  4  5  1  0  0  0  0
  4  8  1  0  0  0  0
  5  6  1  0  0  0  0
  5  7  2  0  0  0  0
  6 29  1  0  0  0  0
  8  9  2  0  0  0  0
  9 10  1  0  0  0  0
  9 21  1  0  0  0  0
 10 11  1  0  0  0  0
 11 12  1  6  0  0  0
 11 17  1  0  0  0  0
 11 13  1  0  0  0  0
 13 14  1  0  0  0  0
 13 22  1  0  0  0  0
 13 23  1  0  0  0  0
 14 15  1  0  0  0  0
 14 24  1  0  0  0  0
 14 25  1  0  0  0  0
 15 16  1  6  0  0  0
 15 17  1  0  0  0  0
 15 18  1  0  0  0  0
 18 19  1  0  0  0  0
 18 26  1  0  0  0  0
 18 27  1  0  0  0  0
 19 28  1  0  0  0  0
M  END
$$$$
