ZINC19632912
 OpenBabel08292219463D

 34 36  0  0  0  0  0  0  0  0999 V2000
   -0.0187    1.5258    0.0104 C   0  0  0  0  0  0  0  0  0  0  0  0
    0.0021   -0.0041    0.0020 C   0  0  0  0  0  0  0  0  0  0  0  0
    0.7182   -0.4975   -1.2568 C   0  0  0  0  0  0  0  0  0  0  0  0
    0.7421   -0.5109    1.2415 C   0  0  0  0  0  0  0  0  0  0  0  0
   -0.0083   -0.1401    2.4439 N   0  0  0  0  0  0  0  0  0  0  0  0
    0.1938    0.9657    3.2115 C   0  0  0  0  0  0  0  0  0  0  0  0
   -0.6538    0.9774    4.2002 N   0  0  0  0  0  0  0  0  0  0  0  0
   -1.4490   -0.1168    4.1276 C   0  0  0  0  0  0  0  0  0  0  0  0
   -1.0451   -0.8378    2.9992 C   0  0  0  0  0  0  0  0  0  0  0  0
   -1.7537   -2.0712    2.6877 C   0  0  0  0  0  0  0  0  0  0  0  0
   -1.4158   -2.8579    1.5817 C   0  0  0  0  0  0  0  0  0  0  0  0
   -2.1094   -4.0060    1.3318 C   0  0  0  0  0  0  0  0  0  0  0  0
   -3.1500   -4.4032    2.1649 C   0  0  0  0  0  0  0  0  0  0  0  0
   -3.5035   -3.6586    3.2504 C   0  0  0  0  0  0  0  0  0  0  0  0
   -2.8122   -2.4722    3.5389 C   0  0  0  0  0  0  0  0  0  0  0  0
   -3.1422   -1.7242    4.6022 N   0  0  0  0  0  0  0  0  0  0  0  0
   -2.5158   -0.6117    4.9107 C   0  0  0  0  0  0  0  0  0  0  0  0
   -2.9214    0.1029    6.0254 N   0  0  0  0  0  0  0  0  0  0  0  0
    1.0039    1.9031    0.0027 H   0  0  0  0  0  0  0  0  0  0  0  0
   -0.5459    1.8868   -0.8726 H   0  0  0  0  0  0  0  0  0  0  0  0
   -0.5289    1.8773    0.9072 H   0  0  0  0  0  0  0  0  0  0  0  0
   -1.0205   -0.3814    0.0098 H   0  0  0  0  0  0  0  0  0  0  0  0
    1.7408   -0.1202   -1.2645 H   0  0  0  0  0  0  0  0  0  0  0  0
    0.7330   -1.5874   -1.2628 H   0  0  0  0  0  0  0  0  0  0  0  0
    0.1910   -0.1364   -2.1398 H   0  0  0  0  0  0  0  0  0  0  0  0
    0.8346   -1.5958    1.1912 H   0  0  0  0  0  0  0  0  0  0  0  0
    1.7350   -0.0630    1.2804 H   0  0  0  0  0  0  0  0  0  0  0  0
    0.9444    1.7202    3.0282 H   0  0  0  0  0  0  0  0  0  0  0  0
   -0.6098   -2.5578    0.9284 H   0  0  0  0  0  0  0  0  0  0  0  0
   -1.8477   -4.6128    0.4775 H   0  0  0  0  0  0  0  0  0  0  0  0
   -3.6863   -5.3153    1.9481 H   0  0  0  0  0  0  0  0  0  0  0  0
   -4.3142   -3.9810    3.8869 H   0  0  0  0  0  0  0  0  0  0  0  0
   -2.4744    0.9314    6.2594 H   0  0  0  0  0  0  0  0  0  0  0  0
   -3.6524   -0.2250    6.5722 H   0  0  0  0  0  0  0  0  0  0  0  0
  1  2  1  0  0  0  0
  1 19  1  0  0  0  0
  1 20  1  0  0  0  0
  1 21  1  0  0  0  0
  2  3  1  0  0  0  0
  2  4  1  0  0  0  0
  2 22  1  0  0  0  0
  3 23  1  0  0  0  0
  3 24  1  0  0  0  0
  3 25  1  0  0  0  0
  4  5  1  0  0  0  0
  4 26  1  0  0  0  0
  4 27  1  0  0  0  0
  5  9  1  0  0  0  0
  5  6  1  0  0  0  0
  6  7  2  0  0  0  0
  6 28  1  0  0  0  0
  7  8  1  0  0  0  0
  8 17  2  0  0  0  0
  8  9  1  0  0  0  0
  9 10  2  0  0  0  0
 10 15  1  0  0  0  0
 10 11  1  0  0  0  0
 11 12  2  0  0  0  0
 11 29  1  0  0  0  0
 12 13  1  0  0  0  0
 12 30  1  0  0  0  0
 13 14  2  0  0  0  0
 13 31  1  0  0  0  0
 14 15  1  0  0  0  0
 14 32  1  0  0  0  0
 15 16  2  0  0  0  0
 16 17  1  0  0  0  0
 17 18  1  0  0  0  0
 18 33  1  0  0  0  0
 18 34  1  0  0  0  0
M  END
$$$$
