ZINC01530800
 OpenBabel08292219463D

 38 37  0  0  1  0  0  0  0  0999 V2000
    0.1757    1.5706    1.0274 C   0  0  0  0  0  0  0  0  0  0  0  0
    0.1916    0.0498    0.8607 C   0  0  0  0  0  0  0  0  0  0  0  0
   -1.1420   -0.4208    0.6552 O   0  0  0  0  0  0  0  0  0  0  0  0
   -1.3029   -1.7431    0.4903 C   0  0  0  0  0  0  0  0  0  0  0  0
   -0.3433   -2.4768    0.5194 O   0  0  0  0  0  0  0  0  0  0  0  0
   -2.6804   -2.3127    0.2687 C   0  0  0  0  0  0  0  0  0  0  0  0
   -2.5749   -3.8172    0.0114 C   0  0  2  0  0  0  0  0  0  0  0  0
   -1.8845   -3.9974   -0.8126 H   0  0  0  0  0  0  0  0  0  0  0  0
   -3.9341   -4.3627   -0.3436 C   0  0  0  0  0  0  0  0  0  0  0  0
   -4.9290   -3.8454    0.1063 O   0  0  0  0  0  0  0  0  0  0  0  0
   -4.0395   -5.4233   -1.1596 O   0  0  0  0  0  0  0  0  0  0  0  0
   -5.3588   -5.8872   -1.4534 C   0  0  0  0  0  0  0  0  0  0  0  0
   -5.2782   -7.0933   -2.3913 C   0  0  0  0  0  0  0  0  0  0  0  0
   -1.9626   -4.6446    1.5051 S   0  0  0  0  0  0  0  0  0  0  0  0
   -1.5386   -6.6192    0.8604 P   0  0  0  0  0  0  0  0  0  0  0  0
   -0.7161   -7.5608    2.2423 S   0  0  0  0  0  0  0  0  0  0  0  0
   -2.9103   -7.3562    0.4509 O   0  0  0  0  0  0  0  0  0  0  0  0
   -3.8524   -7.8368    1.4119 C   0  0  0  0  0  0  0  0  0  0  0  0
   -0.5557   -6.5684   -0.4137 O   0  0  0  0  0  0  0  0  0  0  0  0
    0.5977   -5.7269   -0.4738 C   0  0  0  0  0  0  0  0  0  0  0  0
    1.1929    1.9296    1.1841 H   0  0  0  0  0  0  0  0  0  0  0  0
   -0.2374    2.0302    0.1295 H   0  0  0  0  0  0  0  0  0  0  0  0
   -0.4396    1.8355    1.8872 H   0  0  0  0  0  0  0  0  0  0  0  0
    0.8069   -0.2151    0.0009 H   0  0  0  0  0  0  0  0  0  0  0  0
    0.6048   -0.4098    1.7586 H   0  0  0  0  0  0  0  0  0  0  0  0
   -3.2926   -2.1375    1.1534 H   0  0  0  0  0  0  0  0  0  0  0  0
   -3.1397   -1.8281   -0.5928 H   0  0  0  0  0  0  0  0  0  0  0  0
   -5.8558   -6.1789   -0.5282 H   0  0  0  0  0  0  0  0  0  0  0  0
   -5.9255   -5.0900   -1.9345 H   0  0  0  0  0  0  0  0  0  0  0  0
   -6.2845   -7.4472   -2.6154 H   0  0  0  0  0  0  0  0  0  0  0  0
   -4.7811   -6.8015   -3.3165 H   0  0  0  0  0  0  0  0  0  0  0  0
   -4.7114   -7.8905   -1.9102 H   0  0  0  0  0  0  0  0  0  0  0  0
   -4.6959   -8.2955    0.8958 H   0  0  0  0  0  0  0  0  0  0  0  0
   -3.3726   -8.5767    2.0526 H   0  0  0  0  0  0  0  0  0  0  0  0
   -4.2074   -7.0049    2.0202 H   0  0  0  0  0  0  0  0  0  0  0  0
    1.1004   -5.8673   -1.4307 H   0  0  0  0  0  0  0  0  0  0  0  0
    0.2932   -4.6852   -0.3726 H   0  0  0  0  0  0  0  0  0  0  0  0
    1.2794   -5.9865    0.3362 H   0  0  0  0  0  0  0  0  0  0  0  0
  1  2  1  0  0  0  0
  1 21  1  0  0  0  0
  1 22  1  0  0  0  0
  1 23  1  0  0  0  0
  2  3  1  0  0  0  0
  2 24  1  0  0  0  0
  2 25  1  0  0  0  0
  3  4  1  0  0  0  0
  4  5  2  0  0  0  0
  4  6  1  0  0  0  0
  6  7  1  0  0  0  0
  6 26  1  0  0  0  0
  6 27  1  0  0  0  0
  7  8  1  6  0  0  0
  7  9  1  0  0  0  0
  7 14  1  0  0  0  0
  9 10  2  0  0  0  0
  9 11  1  0  0  0  0
 11 12  1  0  0  0  0
 12 13  1  0  0  0  0
 12 28  1  0  0  0  0
 12 29  1  0  0  0  0
 13 30  1  0  0  0  0
 13 31  1  0  0  0  0
 13 32  1  0  0  0  0
 14 15  1  0  0  0  0
 15 16  2  0  0  0  0
 15 17  1  0  0  0  0
 15 19  1  0  0  0  0
 17 18  1  0  0  0  0
 18 33  1  0  0  0  0
 18 34  1  0  0  0  0
 18 35  1  0  0  0  0
 19 20  1  0  0  0  0
 20 36  1  0  0  0  0
 20 37  1  0  0  0  0
 20 38  1  0  0  0  0
M  END
$$$$
