ZINC12503139
 OpenBabel08292219463D

 22 22  0  0  0  0  0  0  0  0999 V2000
    3.9421   -1.5299    0.3090 C   0  0  0  0  0  0  0  0  0  0  0  0
    2.8637   -2.3875    0.1812 C   0  0  0  0  0  0  0  0  0  0  0  0
    1.5824   -1.8825    0.0903 C   0  0  0  0  0  0  0  0  0  0  0  0
    1.3756   -0.4991    0.1281 C   0  0  0  0  0  0  0  0  0  0  0  0
    2.4721    0.3613    0.2522 C   0  0  0  0  0  0  0  0  0  0  0  0
    3.7464   -0.1605    0.3473 C   0  0  0  0  0  0  0  0  0  0  0  0
    2.2299    2.0798    0.2932 Cl  0  0  0  0  0  0  0  0  0  0  0  0
    0.0130    0.0481    0.0319 C   0  0  0  0  0  0  0  0  0  0  0  0
   -0.9047   -0.3335    0.8776 N   0  0  0  0  0  0  0  0  0  0  0  0
   -0.5914   -1.0994    1.8672 N   0  0  0  0  0  0  0  0  0  0  0  0
   -1.5193   -1.4912    2.7166 C   0  0  0  0  0  0  0  0  0  0  0  0
   -2.7937   -0.9931    2.6180 N   0  0  0  0  0  0  0  0  0  0  0  0
   -1.2111   -2.3971    3.6995 N   0  0  0  0  0  0  0  0  0  0  0  0
    0.2313   -2.9605   -0.0712 Cl  0  0  0  0  0  0  0  0  0  0  0  0
    4.9422   -1.9315    0.3789 H   0  0  0  0  0  0  0  0  0  0  0  0
    3.0251   -3.4550    0.1521 H   0  0  0  0  0  0  0  0  0  0  0  0
    4.5935    0.5019    0.4472 H   0  0  0  0  0  0  0  0  0  0  0  0
   -0.2276    0.7657   -0.7386 H   0  0  0  0  0  0  0  0  0  0  0  0
   -3.0116   -0.3525    1.9230 H   0  0  0  0  0  0  0  0  0  0  0  0
   -3.4769   -1.2815    3.2433 H   0  0  0  0  0  0  0  0  0  0  0  0
   -0.2941   -2.6897    3.8191 H   0  0  0  0  0  0  0  0  0  0  0  0
   -1.9102   -2.7451    4.2748 H   0  0  0  0  0  0  0  0  0  0  0  0
  1  6  2  0  0  0  0
  1  2  1  0  0  0  0
  1 15  1  0  0  0  0
  2  3  2  0  0  0  0
  2 16  1  0  0  0  0
  3  4  1  0  0  0  0
  3 14  1  0  0  0  0
  4  5  2  0  0  0  0
  4  8  1  0  0  0  0
  5  6  1  0  0  0  0
  5  7  1  0  0  0  0
  6 17  1  0  0  0  0
  8  9  2  0  0  0  0
  8 18  1  0  0  0  0
  9 10  1  0  0  0  0
 10 11  2  0  0  0  0
 11 12  1  0  0  0  0
 11 13  1  0  0  0  0
 12 19  1  0  0  0  0
 12 20  1  0  0  0  0
 13 21  1  0  0  0  0
 13 22  1  0  0  0  0
M  END
$$$$
