ZINC05514900
 OpenBabel08292219463D

 31 31  0  0  0  0  0  0  0  0999 V2000
   -0.0366    1.0992   -2.4903 C   0  0  0  0  0  0  0  0  0  0  0  0
   -0.7527    1.5927   -1.2315 C   0  0  0  0  0  0  0  0  0  0  0  0
   -0.0127    1.0858    0.0080 C   0  0  0  0  0  0  0  0  0  0  0  0
   -0.7288    1.5792    1.2668 C   0  0  0  0  0  0  0  0  0  0  0  0
    0.0111    1.0724    2.5063 C   0  0  0  0  0  0  0  0  0  0  0  0
    1.3706    1.7441    2.5521 C   0  0  0  0  0  0  0  0  0  0  0  0
    1.4744    2.9516    2.5849 O   0  0  0  0  0  0  0  0  0  0  0  0
    2.4604    0.9475    2.5545 N   0  0  0  0  0  0  0  0  0  0  0  0
    2.3629   -0.3863    2.5186 C   0  0  0  0  0  0  0  0  0  0  0  0
    3.3953   -1.0267    2.5241 O   0  0  0  0  0  0  0  0  0  0  0  0
    1.2115   -1.0665    2.4765 N   0  0  0  0  0  0  0  0  0  0  0  0
    0.0137   -0.4441    2.4674 C   0  0  0  0  0  0  0  0  0  0  0  0
   -1.0217   -1.0737    2.4299 O   0  0  0  0  0  0  0  0  0  0  0  0
   -0.7761    1.5156    3.7411 C   0  0  0  0  0  0  0  0  0  0  0  0
   -0.0638    1.0252    5.0032 C   0  0  0  0  0  0  0  0  0  0  0  0
   -0.5686    1.4636   -3.3815 H   0  0  0  0  0  0  0  0  0  0  0  0
   -0.0218   -0.0007   -2.4963 H   0  0  0  0  0  0  0  0  0  0  0  0
    0.9954    1.4799   -2.4981 H   0  0  0  0  0  0  0  0  0  0  0  0
   -0.7675    2.6926   -1.2255 H   0  0  0  0  0  0  0  0  0  0  0  0
   -1.7847    1.2121   -1.2237 H   0  0  0  0  0  0  0  0  0  0  0  0
    0.0022   -0.0141    0.0019 H   0  0  0  0  0  0  0  0  0  0  0  0
    1.0193    1.4665    0.0002 H   0  0  0  0  0  0  0  0  0  0  0  0
   -0.7437    2.6791    1.2728 H   0  0  0  0  0  0  0  0  0  0  0  0
   -1.7608    1.1985    1.2746 H   0  0  0  0  0  0  0  0  0  0  0  0
    3.4662    1.3916    2.5867 H   0  0  0  0  0  0  0  0  0  0  0  0
    1.2230   -2.1661    2.4481 H   0  0  0  0  0  0  0  0  0  0  0  0
   -0.8411    2.6135    3.7599 H   0  0  0  0  0  0  0  0  0  0  0  0
   -1.7893    1.0890    3.7027 H   0  0  0  0  0  0  0  0  0  0  0  0
   -0.6298    1.3439    5.8909 H   0  0  0  0  0  0  0  0  0  0  0  0
    0.9493    1.4519    5.0416 H   0  0  0  0  0  0  0  0  0  0  0  0
    0.0012   -0.0727    4.9844 H   0  0  0  0  0  0  0  0  0  0  0  0
  1  2  1  0  0  0  0
  1 16  1  0  0  0  0
  1 17  1  0  0  0  0
  1 18  1  0  0  0  0
  2  3  1  0  0  0  0
  2 19  1  0  0  0  0
  2 20  1  0  0  0  0
  3  4  1  0  0  0  0
  3 21  1  0  0  0  0
  3 22  1  0  0  0  0
  4  5  1  0  0  0  0
  4 23  1  0  0  0  0
  4 24  1  0  0  0  0
  5 12  1  0  0  0  0
  5  6  1  0  0  0  0
  5 14  1  0  0  0  0
  6  7  2  0  0  0  0
  6  8  1  0  0  0  0
  8  9  1  0  0  0  0
  8 25  1  0  0  0  0
  9 10  2  0  0  0  0
  9 11  1  0  0  0  0
 11 12  1  0  0  0  0
 11 26  1  0  0  0  0
 12 13  2  0  0  0  0
 14 15  1  0  0  0  0
 14 27  1  0  0  0  0
 14 28  1  0  0  0  0
 15 29  1  0  0  0  0
 15 30  1  0  0  0  0
 15 31  1  0  0  0  0
M  END
$$$$
