ZINC19632883
 OpenBabel08292219463D

 16 15  0  0  1  0  0  0  0  0999 V2000
   -0.0187    1.5258    0.0104 C   0  0  0  0  0  0  0  0  0  0  0  0
    0.0021   -0.0041    0.0020 C   0  0  1  0  0  0  0  0  0  0  0  0
    0.6932   -0.4774    1.1597 O   0  0  0  0  0  0  0  0  0  0  0  0
   -1.7082   -0.6351    0.0150 P   0  0  0  0  0  0  0  0  0  0  0  0
   -2.4014   -0.2374    1.3625 O   0  0  0  0  0  0  0  0  0  0  0  0
   -2.5029   -0.0145   -1.1841 O   0  0  0  0  0  1  0  0  0  0  0  0
   -1.6901   -2.1956   -0.1224 O   0  0  0  0  0  1  0  0  0  0  0  0
    0.8554   -0.5920   -1.4978 P   0  0  1  0  0  0  0  0  0  0  0  0
    0.8763   -2.1368   -1.5063 O   0  0  0  0  0  0  0  0  0  0  0  0
    0.1081   -0.0802   -2.7495 O   0  0  0  0  0  1  0  0  0  0  0  0
    2.3658   -0.0347   -1.5093 O   0  0  0  0  0  0  0  0  0  0  0  0
    1.0039    1.9031    0.0027 H   0  0  0  0  0  0  0  0  0  0  0  0
   -0.5459    1.8868   -0.8726 H   0  0  0  0  0  0  0  0  0  0  0  0
   -0.5289    1.8773    0.9072 H   0  0  0  0  0  0  0  0  0  0  0  0
    0.7451   -1.4412    1.2202 H   0  0  0  0  0  0  0  0  0  0  0  0
    2.8803   -0.3088   -2.2808 H   0  0  0  0  0  0  0  0  0  0  0  0
  1  2  1  0  0  0  0
  1 12  1  0  0  0  0
  1 13  1  0  0  0  0
  1 14  1  0  0  0  0
  2  3  1  1  0  0  0
  2  4  1  0  0  0  0
  2  8  1  0  0  0  0
  3 15  1  0  0  0  0
  4  5  2  0  0  0  0
  4  6  1  0  0  0  0
  4  7  1  0  0  0  0
  8  9  2  6  0  0  0
  8 10  1  0  0  0  0
  8 11  1  0  0  0  0
 11 16  1  0  0  0  0
M  END
$$$$
