ZINC19702112
 OpenBabel08292219463D

 25 24  0  0  1  0  0  0  0  0999 V2000
   -0.0187    1.5258    0.0104 C   0  0  0  0  0  0  0  0  0  0  0  0
    0.0021   -0.0041    0.0020 C   0  0  0  0  0  0  0  0  0  0  0  0
   -1.4333   -0.5336    0.0129 C   0  0  1  0  0  0  0  0  0  0  0  0
   -2.1022   -0.0728    1.1886 O   0  0  0  0  0  0  0  0  0  0  0  0
   -2.3150    0.0702   -1.4640 P   0  0  0  0  0  0  0  0  0  0  0  0
   -2.4480    1.6296   -1.3916 O   0  0  0  0  0  0  0  0  0  0  0  0
   -1.5126   -0.3263   -2.7498 O   0  0  0  0  0  1  0  0  0  0  0  0
   -3.7422   -0.5735   -1.5198 O   0  0  0  0  0  1  0  0  0  0  0  0
   -1.4086   -2.3565    0.0029 P   0  0  1  0  0  0  0  0  0  0  0  0
   -0.6854   -2.8547   -1.2683 O   0  0  0  0  0  0  0  0  0  0  0  0
   -0.6613   -2.8683    1.2545 O   0  0  0  0  0  1  0  0  0  0  0  0
   -2.9190   -2.9137    0.0143 O   0  0  0  0  0  0  0  0  0  0  0  0
    1.4167    2.0553   -0.0004 C   0  0  0  0  0  0  0  0  0  0  0  0
    1.3968    3.5242    0.0076 N   0  3  0  0  0  0  0  0  0  0  0  0
   -0.5459    1.8868   -0.8726 H   0  0  0  0  0  0  0  0  0  0  0  0
   -0.5289    1.8773    0.9072 H   0  0  0  0  0  0  0  0  0  0  0  0
    0.5123   -0.3556   -0.8948 H   0  0  0  0  0  0  0  0  0  0  0  0
    0.5293   -0.3651    0.8851 H   0  0  0  0  0  0  0  0  0  0  0  0
   -1.6869   -0.3571    2.0143 H   0  0  0  0  0  0  0  0  0  0  0  0
   -2.9823   -3.8786    0.0097 H   0  0  0  0  0  0  0  0  0  0  0  0
    1.9439    1.6943    0.8826 H   0  0  0  0  0  0  0  0  0  0  0  0
    1.9269    1.7038   -0.8972 H   0  0  0  0  0  0  0  0  0  0  0  0
    0.9088    3.8584   -0.8098 H   0  0  0  0  0  0  0  0  0  0  0  0
    0.9245    3.8496    0.8378 H   0  0  0  0  0  0  0  0  0  0  0  0
    2.3434    3.8734    0.0005 H   0  0  0  0  0  0  0  0  0  0  0  0
  1  2  1  0  0  0  0
  1 13  1  0  0  0  0
  1 15  1  0  0  0  0
  1 16  1  0  0  0  0
  2  3  1  0  0  0  0
  2 17  1  0  0  0  0
  2 18  1  0  0  0  0
  3  4  1  1  0  0  0
  3  5  1  0  0  0  0
  3  9  1  0  0  0  0
  4 19  1  0  0  0  0
  5  6  2  0  0  0  0
  5  7  1  0  0  0  0
  5  8  1  0  0  0  0
  9 10  2  6  0  0  0
  9 11  1  0  0  0  0
  9 12  1  0  0  0  0
 12 20  1  0  0  0  0
 13 14  1  0  0  0  0
 13 21  1  0  0  0  0
 13 22  1  0  0  0  0
 14 23  1  0  0  0  0
 14 24  1  0  0  0  0
 14 25  1  0  0  0  0
M  CHG  1  14   1
M  END
$$$$
