ZINC19796080
 OpenBabel08292219463D

 50 53  0  0  0  0  0  0  0  0999 V2000
    1.1999   -4.3108    0.6033 C   0  0  0  0  0  0  0  0  0  0  0  0
    2.5727   -4.4705    0.6845 C   0  0  0  0  0  0  0  0  0  0  0  0
    3.4121   -3.3916    0.4876 C   0  0  0  0  0  0  0  0  0  0  0  0
    2.8775   -2.1434    0.2069 C   0  0  0  0  0  0  0  0  0  0  0  0
    1.4929   -1.9824    0.1246 C   0  0  0  0  0  0  0  0  0  0  0  0
    0.6582   -3.0714    0.3243 C   0  0  0  0  0  0  0  0  0  0  0  0
    1.2602   -0.6400   -0.1657 N   0  0  0  0  0  0  0  0  0  0  0  0
    0.3903   -0.2272   -0.2826 H   0  0  0  0  0  0  0  0  0  0  0  0
    2.4482   -0.0129   -0.2558 C   0  0  0  0  0  0  0  0  0  0  0  0
    2.5995    1.1696   -0.4994 O   0  0  0  0  0  0  0  0  0  0  0  0
    3.4433   -0.8928   -0.0361 N   0  0  0  0  0  0  0  0  0  0  0  0
    4.8068   -0.6025   -0.0486 C   0  0  0  0  0  0  0  0  0  0  0  0
    5.1801    0.6473   -0.1413 C   0  0  0  0  0  0  0  0  0  0  0  0
    6.6194    1.0744   -0.1715 C   0  0  0  0  0  0  0  0  0  0  0  0
    7.4817   -0.0094    0.3161 N   0  0  0  0  0  0  0  0  0  0  0  0
    7.1733   -1.2631   -0.3915 C   0  0  0  0  0  0  0  0  0  0  0  0
    5.7857   -1.7388    0.0512 C   0  0  0  0  0  0  0  0  0  0  0  0
    8.9009    0.3414    0.1713 C   0  0  0  0  0  0  0  0  0  0  0  0
    9.2330    1.5146    1.0955 C   0  0  0  0  0  0  0  0  0  0  0  0
   10.7111    1.8800    0.9447 C   0  0  0  0  0  0  0  0  0  0  0  0
   11.0383    3.0356    1.8550 C   0  0  0  0  0  0  0  0  0  0  0  0
   10.1744    3.5193    2.5554 O   0  0  0  0  0  0  0  0  0  0  0  0
   12.4047    3.5766    1.8940 C   0  0  0  0  0  0  0  0  0  0  0  0
   13.4025    3.0245    1.0830 C   0  0  0  0  0  0  0  0  0  0  0  0
   14.6808    3.5361    1.1244 C   0  0  0  0  0  0  0  0  0  0  0  0
   14.9801    4.5958    1.9680 C   0  0  0  0  0  0  0  0  0  0  0  0
   13.9956    5.1477    2.7746 C   0  0  0  0  0  0  0  0  0  0  0  0
   12.7118    4.6496    2.7382 C   0  0  0  0  0  0  0  0  0  0  0  0
   16.2360    5.0923    2.0046 F   0  0  0  0  0  0  0  0  0  0  0  0
    0.5499   -5.1600    0.7544 H   0  0  0  0  0  0  0  0  0  0  0  0
    2.9889   -5.4428    0.9031 H   0  0  0  0  0  0  0  0  0  0  0  0
    4.4825   -3.5198    0.5524 H   0  0  0  0  0  0  0  0  0  0  0  0
   -0.4133   -2.9507    0.2617 H   0  0  0  0  0  0  0  0  0  0  0  0
    4.4166    1.4090   -0.1993 H   0  0  0  0  0  0  0  0  0  0  0  0
    6.8997    1.3264   -1.1943 H   0  0  0  0  0  0  0  0  0  0  0  0
    6.7489    1.9517    0.4622 H   0  0  0  0  0  0  0  0  0  0  0  0
    7.1779   -1.0872   -1.4672 H   0  0  0  0  0  0  0  0  0  0  0  0
    7.9166   -2.0191   -0.1381 H   0  0  0  0  0  0  0  0  0  0  0  0
    5.8307   -2.0892    1.0823 H   0  0  0  0  0  0  0  0  0  0  0  0
    5.4611   -2.5548   -0.5945 H   0  0  0  0  0  0  0  0  0  0  0  0
    9.5166   -0.5174    0.4387 H   0  0  0  0  0  0  0  0  0  0  0  0
    9.1015    0.6247   -0.8619 H   0  0  0  0  0  0  0  0  0  0  0  0
    8.6174    2.3734    0.8281 H   0  0  0  0  0  0  0  0  0  0  0  0
    9.0324    1.2313    2.1287 H   0  0  0  0  0  0  0  0  0  0  0  0
   11.3268    1.0212    1.2121 H   0  0  0  0  0  0  0  0  0  0  0  0
   10.9118    2.1633   -0.0885 H   0  0  0  0  0  0  0  0  0  0  0  0
   13.1710    2.1990    0.4263 H   0  0  0  0  0  0  0  0  0  0  0  0
   15.4518    3.1109    0.4990 H   0  0  0  0  0  0  0  0  0  0  0  0
   14.2351    5.9726    3.4292 H   0  0  0  0  0  0  0  0  0  0  0  0
   11.9452    5.0830    3.3634 H   0  0  0  0  0  0  0  0  0  0  0  0
  1  6  2  0  0  0  0
  1  2  1  0  0  0  0
  1 30  1  0  0  0  0
  2  3  2  0  0  0  0
  2 31  1  0  0  0  0
  3  4  1  0  0  0  0
  3 32  1  0  0  0  0
  4 11  1  0  0  0  0
  4  5  2  0  0  0  0
  5  6  1  0  0  0  0
  5  7  1  0  0  0  0
  6 33  1  0  0  0  0
  7  8  1  0  0  0  0
  7  9  1  0  0  0  0
  9 10  2  0  0  0  0
  9 11  1  0  0  0  0
 11 12  1  0  0  0  0
 12 17  1  0  0  0  0
 12 13  2  0  0  0  0
 13 14  1  0  0  0  0
 13 34  1  0  0  0  0
 14 15  1  0  0  0  0
 14 35  1  0  0  0  0
 14 36  1  0  0  0  0
 15 16  1  0  0  0  0
 15 18  1  0  0  0  0
 16 17  1  0  0  0  0
 16 37  1  0  0  0  0
 16 38  1  0  0  0  0
 17 39  1  0  0  0  0
 17 40  1  0  0  0  0
 18 19  1  0  0  0  0
 18 41  1  0  0  0  0
 18 42  1  0  0  0  0
 19 20  1  0  0  0  0
 19 43  1  0  0  0  0
 19 44  1  0  0  0  0
 20 21  1  0  0  0  0
 20 45  1  0  0  0  0
 20 46  1  0  0  0  0
 21 22  2  0  0  0  0
 21 23  1  0  0  0  0
 23 28  2  0  0  0  0
 23 24  1  0  0  0  0
 24 25  2  0  0  0  0
 24 47  1  0  0  0  0
 25 26  1  0  0  0  0
 25 48  1  0  0  0  0
 26 27  2  0  0  0  0
 26 29  1  0  0  0  0
 27 28  1  0  0  0  0
 27 49  1  0  0  0  0
 28 50  1  0  0  0  0
M  END
$$$$
