ZINC02041282
 OpenBabel08292219463D

 51 53  0  0  1  0  0  0  0  0999 V2000
    1.6336    3.9940    0.3997 C   0  0  0  0  0  0  0  0  0  0  0  0
    2.5351    2.9935    0.0882 C   0  0  0  0  0  0  0  0  0  0  0  0
    2.0977    1.6905   -0.0594 C   0  0  0  0  0  0  0  0  0  0  0  0
    0.7589    1.3880    0.1050 C   0  0  0  0  0  0  0  0  0  0  0  0
   -0.1434    2.3894    0.4113 C   0  0  0  0  0  0  0  0  0  0  0  0
    0.2946    3.6917    0.5632 C   0  0  0  0  0  0  0  0  0  0  0  0
    0.2821   -0.0326   -0.0559 C   0  0  2  0  0  0  0  0  0  0  0  0
   -0.2994   -0.2196   -1.4586 C   0  0  0  0  0  0  0  0  0  0  0  0
   -0.7742   -1.6644   -1.6254 C   0  0  0  0  0  0  0  0  0  0  0  0
   -2.3768   -1.0824   -3.3440 C   0  0  0  0  0  0  0  0  0  0  0  0
   -2.6951   -1.2248   -4.8341 C   0  0  0  0  0  0  0  0  0  0  0  0
   -2.9491   -2.6996   -5.1582 C   0  0  0  0  0  0  0  0  0  0  0  0
   -1.7182   -3.5202   -4.7629 C   0  0  0  0  0  0  0  0  0  0  0  0
   -1.4282   -3.3113   -3.2748 C   0  0  0  0  0  0  0  0  0  0  0  0
   -0.7969   -0.3295    0.9873 C   0  0  0  0  0  0  0  0  0  0  0  0
   -0.3426    0.1329    2.3940 C   0  0  0  0  0  0  0  0  0  0  0  0
   -1.1716   -0.7345    3.3636 C   0  0  0  0  0  0  0  0  0  0  0  0
   -1.5750   -1.9996    2.5862 C   0  0  0  0  0  0  0  0  0  0  0  0
   -0.9770   -1.8569    1.1713 C   0  0  0  0  0  0  0  0  0  0  0  0
    1.3810   -0.9275    0.1274 O   0  0  0  0  0  0  0  0  0  0  0  0
    1.9754    5.0119    0.5157 H   0  0  0  0  0  0  0  0  0  0  0  0
    3.5812    3.2297   -0.0396 H   0  0  0  0  0  0  0  0  0  0  0  0
    2.8020    0.9087   -0.3028 H   0  0  0  0  0  0  0  0  0  0  0  0
   -1.1901    2.1538    0.5353 H   0  0  0  0  0  0  0  0  0  0  0  0
   -0.4096    4.4733    0.8069 H   0  0  0  0  0  0  0  0  0  0  0  0
   -1.1422    0.4579   -1.5959 H   0  0  0  0  0  0  0  0  0  0  0  0
    0.4673   -0.0010   -2.2019 H   0  0  0  0  0  0  0  0  0  0  0  0
    0.0402   -2.3454   -1.3780 H   0  0  0  0  0  0  0  0  0  0  0  0
   -1.6172   -1.8491   -0.9595 H   0  0  0  0  0  0  0  0  0  0  0  0
   -3.2258   -1.4317   -2.7563 H   0  0  0  0  0  0  0  0  0  0  0  0
   -2.1814   -0.0353   -3.1128 H   0  0  0  0  0  0  0  0  0  0  0  0
   -1.8519   -0.8629   -5.4225 H   0  0  0  0  0  0  0  0  0  0  0  0
   -3.5837   -0.6412   -5.0744 H   0  0  0  0  0  0  0  0  0  0  0  0
   -3.1335   -2.8113   -6.2266 H   0  0  0  0  0  0  0  0  0  0  0  0
   -3.8164   -3.0520   -4.6000 H   0  0  0  0  0  0  0  0  0  0  0  0
   -0.8597   -3.1944   -5.3502 H   0  0  0  0  0  0  0  0  0  0  0  0
   -1.9092   -4.5766   -4.9516 H   0  0  0  0  0  0  0  0  0  0  0  0
   -0.5439   -3.8830   -2.9934 H   0  0  0  0  0  0  0  0  0  0  0  0
   -2.2818   -3.6500   -2.6876 H   0  0  0  0  0  0  0  0  0  0  0  0
   -1.7405    0.1400    0.7093 H   0  0  0  0  0  0  0  0  0  0  0  0
    0.7226   -0.0533    2.5313 H   0  0  0  0  0  0  0  0  0  0  0  0
   -0.5679    1.1894    2.5395 H   0  0  0  0  0  0  0  0  0  0  0  0
   -2.0619   -0.1920    3.6817 H   0  0  0  0  0  0  0  0  0  0  0  0
   -0.5692   -1.0052    4.2306 H   0  0  0  0  0  0  0  0  0  0  0  0
   -2.6611   -2.0711    2.5270 H   0  0  0  0  0  0  0  0  0  0  0  0
   -1.1683   -2.8844    3.0759 H   0  0  0  0  0  0  0  0  0  0  0  0
   -1.6653   -2.2526    0.4245 H   0  0  0  0  0  0  0  0  0  0  0  0
   -0.0143   -2.3645    1.1111 H   0  0  0  0  0  0  0  0  0  0  0  0
    2.1041   -0.7963   -0.5011 H   0  0  0  0  0  0  0  0  0  0  0  0
   -1.1686   -1.8761   -3.0335 N   0  3  0  0  0  0  0  0  0  0  0  0
   -0.4024   -1.5690   -3.6441 H   0  0  0  0  0  0  0  0  0  0  0  0
  1  6  2  0  0  0  0
  1  2  1  0  0  0  0
  1 21  1  0  0  0  0
  2  3  2  0  0  0  0
  2 22  1  0  0  0  0
  3  4  1  0  0  0  0
  3 23  1  0  0  0  0
  4  5  2  0  0  0  0
  4  7  1  0  0  0  0
  5  6  1  0  0  0  0
  5 24  1  0  0  0  0
  6 25  1  0  0  0  0
  7  8  1  0  0  0  0
  7 15  1  0  0  0  0
  7 20  1  1  0  0  0
  8  9  1  0  0  0  0
  8 26  1  0  0  0  0
  8 27  1  0  0  0  0
  9 28  1  0  0  0  0
  9 29  1  0  0  0  0
  9 50  1  0  0  0  0
 10 11  1  0  0  0  0
 10 30  1  0  0  0  0
 10 31  1  0  0  0  0
 10 50  1  0  0  0  0
 11 12  1  0  0  0  0
 11 32  1  0  0  0  0
 11 33  1  0  0  0  0
 12 13  1  0  0  0  0
 12 34  1  0  0  0  0
 12 35  1  0  0  0  0
 13 14  1  0  0  0  0
 13 36  1  0  0  0  0
 13 37  1  0  0  0  0
 14 38  1  0  0  0  0
 14 39  1  0  0  0  0
 14 50  1  0  0  0  0
 15 19  1  0  0  0  0
 15 16  1  0  0  0  0
 15 40  1  0  0  0  0
 16 17  1  0  0  0  0
 16 41  1  0  0  0  0
 16 42  1  0  0  0  0
 17 18  1  0  0  0  0
 17 43  1  0  0  0  0
 17 44  1  0  0  0  0
 18 19  1  0  0  0  0
 18 45  1  0  0  0  0
 18 46  1  0  0  0  0
 19 47  1  0  0  0  0
 19 48  1  0  0  0  0
 20 49  1  0  0  0  0
 50 51  1  0  0  0  0
M  CHG  1  50   1
M  END
$$$$
