ZINC05844792
 OpenBabel08292219463D

 55 58  0  0  1  0  0  0  0  0999 V2000
    6.2645    1.6380    8.2980 C   0  0  0  0  0  0  0  0  0  0  0  0
    5.4779    1.7124    7.1666 C   0  0  0  0  0  0  0  0  0  0  0  0
    4.0981    1.5635    7.2615 C   0  0  0  0  0  0  0  0  0  0  0  0
    3.5153    1.3364    8.4958 C   0  0  0  0  0  0  0  0  0  0  0  0
    4.3079    1.2630    9.6292 C   0  0  0  0  0  0  0  0  0  0  0  0
    5.6793    1.4140    9.5327 C   0  0  0  0  0  0  0  0  0  0  0  0
    6.4473    1.3422   10.6419 F   0  0  0  0  0  0  0  0  0  0  0  0
    2.0246    1.1639    8.6412 C   0  0  0  0  0  0  0  0  0  0  0  0
    1.3188    1.7047    7.3952 C   0  0  0  0  0  0  0  0  0  0  0  0
    2.0248    1.1370    6.1571 C   0  0  2  0  0  0  0  0  0  0  0  0
    2.0501    0.0488    6.2155 H   0  0  0  0  0  0  0  0  0  0  0  0
    3.3581    1.6482    6.1245 O   0  0  0  0  0  0  0  0  0  0  0  0
    1.2765    1.5681    4.8941 C   0  0  2  0  0  0  0  0  0  0  0  0
    0.2869    1.1112    4.8843 H   0  0  0  0  0  0  0  0  0  0  0  0
    2.0587    1.1171    3.6589 C   0  0  0  0  0  0  0  0  0  0  0  0
    2.0636    1.1140    1.2377 C   0  0  0  0  0  0  0  0  0  0  0  0
    1.2864    1.5618   -0.0018 C   0  0  1  0  0  0  0  0  0  0  0  0
    1.1856    2.6471    0.0050 H   0  0  0  0  0  0  0  0  0  0  0  0
    2.0397    1.1274   -1.2607 C   0  0  2  0  0  0  0  0  0  0  0  0
    2.9942    1.6509   -1.3163 H   0  0  0  0  0  0  0  0  0  0  0  0
    1.1998    1.4507   -2.5030 C   0  0  0  0  0  0  0  0  0  0  0  0
    2.0266    1.1082   -3.7448 C   0  0  0  0  0  0  0  0  0  0  0  0
    2.6240   -0.2679   -3.5937 C   0  0  0  0  0  0  0  0  0  0  0  0
    3.0895   -0.9195   -4.7236 C   0  0  0  0  0  0  0  0  0  0  0  0
    3.6460   -2.1817   -4.6218 C   0  0  0  0  0  0  0  0  0  0  0  0
    3.7403   -2.7973   -3.3852 C   0  0  0  0  0  0  0  0  0  0  0  0
    3.2770   -2.1513   -2.2573 C   0  0  0  0  0  0  0  0  0  0  0  0
    2.7145   -0.8830   -2.3575 C   0  0  0  0  0  0  0  0  0  0  0  0
    2.2656   -0.2824   -1.2238 O   0  0  0  0  0  0  0  0  0  0  0  0
    4.0976   -2.8128   -5.7276 F   0  0  0  0  0  0  0  0  0  0  0  0
   -0.0110    0.9628    0.0073 O   0  0  0  0  0  0  0  0  0  0  0  0
    1.1444    2.9909    4.8810 O   0  0  0  0  0  0  0  0  0  0  0  0
    7.3354    1.7541    8.2204 H   0  0  0  0  0  0  0  0  0  0  0  0
    5.9352    1.8873    6.2040 H   0  0  0  0  0  0  0  0  0  0  0  0
    3.8529    1.0878   10.5929 H   0  0  0  0  0  0  0  0  0  0  0  0
    1.6801    1.7105    9.5191 H   0  0  0  0  0  0  0  0  0  0  0  0
    1.7924    0.1054    8.7588 H   0  0  0  0  0  0  0  0  0  0  0  0
    1.3759    2.7931    7.3839 H   0  0  0  0  0  0  0  0  0  0  0  0
    0.2748    1.3916    7.3986 H   0  0  0  0  0  0  0  0  0  0  0  0
    2.1595    0.0318    3.6689 H   0  0  0  0  0  0  0  0  0  0  0  0
    3.0483    1.5740    3.6687 H   0  0  0  0  0  0  0  0  0  0  0  0
    2.1644    0.0287    1.2309 H   0  0  0  0  0  0  0  0  0  0  0  0
    3.0532    1.5708    1.2307 H   0  0  0  0  0  0  0  0  0  0  0  0
    0.2865    0.8557   -2.4941 H   0  0  0  0  0  0  0  0  0  0  0  0
    0.9473    2.5110   -2.5101 H   0  0  0  0  0  0  0  0  0  0  0  0
    1.3846    1.1301   -4.6254 H   0  0  0  0  0  0  0  0  0  0  0  0
    2.8266    1.8394   -3.8608 H   0  0  0  0  0  0  0  0  0  0  0  0
    3.0170   -0.4403   -5.6887 H   0  0  0  0  0  0  0  0  0  0  0  0
    4.1764   -3.7820   -3.3034 H   0  0  0  0  0  0  0  0  0  0  0  0
    3.3510   -2.6324   -1.2932 H   0  0  0  0  0  0  0  0  0  0  0  0
    0.0021   -0.0041    0.0020 H   0  0  0  0  0  0  0  0  0  0  0  0
    1.9876    3.4643    4.8887 H   0  0  0  0  0  0  0  0  0  0  0  0
    1.3309    1.5363    2.4463 N   0  3  0  0  0  0  0  0  0  0  0  0
    1.2359    2.5587    2.4448 H   0  0  0  0  0  0  0  0  0  0  0  0
    0.3987    1.1059    2.4449 H   0  0  0  0  0  0  0  0  0  0  0  0
  1  6  2  0  0  0  0
  1  2  1  0  0  0  0
  1 33  1  0  0  0  0
  2  3  2  0  0  0  0
  2 34  1  0  0  0  0
  3 12  1  0  0  0  0
  3  4  1  0  0  0  0
  4  5  2  0  0  0  0
  4  8  1  0  0  0  0
  5  6  1  0  0  0  0
  5 35  1  0  0  0  0
  6  7  1  0  0  0  0
  8  9  1  0  0  0  0
  8 36  1  0  0  0  0
  8 37  1  0  0  0  0
  9 10  1  0  0  0  0
  9 38  1  0  0  0  0
  9 39  1  0  0  0  0
 10 11  1  1  0  0  0
 10 12  1  0  0  0  0
 10 13  1  0  0  0  0
 13 14  1  6  0  0  0
 13 15  1  0  0  0  0
 13 32  1  0  0  0  0
 15 40  1  0  0  0  0
 15 41  1  0  0  0  0
 15 53  1  0  0  0  0
 16 17  1  0  0  0  0
 16 42  1  0  0  0  0
 16 43  1  0  0  0  0
 16 53  1  0  0  0  0
 17 18  1  1  0  0  0
 17 19  1  0  0  0  0
 17 31  1  0  0  0  0
 19 20  1  6  0  0  0
 19 29  1  0  0  0  0
 19 21  1  0  0  0  0
 21 22  1  0  0  0  0
 21 44  1  0  0  0  0
 21 45  1  0  0  0  0
 22 23  1  0  0  0  0
 22 46  1  0  0  0  0
 22 47  1  0  0  0  0
 23 28  2  0  0  0  0
 23 24  1  0  0  0  0
 24 25  2  0  0  0  0
 24 48  1  0  0  0  0
 25 26  1  0  0  0  0
 25 30  1  0  0  0  0
 26 27  2  0  0  0  0
 26 49  1  0  0  0  0
 27 28  1  0  0  0  0
 27 50  1  0  0  0  0
 28 29  1  0  0  0  0
 31 51  1  0  0  0  0
 32 52  1  0  0  0  0
 53 54  1  0  0  0  0
 53 55  1  0  0  0  0
M  CHG  1  53   1
M  END
$$$$
