ZINC85537027
 OpenBabel08292219463D

126129  0  0  1  0  0  0  0  0999 V2000
   -1.0086    2.4688    0.9305 C   0  0  0  0  0  0  0  0  0  0  0  0
   -0.8681    0.9795    0.6143 C   0  0  2  0  0  0  0  0  0  0  0  0
   -0.4867    0.8738   -0.4085 H   0  0  0  0  0  0  0  0  0  0  0  0
   -2.2281    0.2885    0.6636 C   0  0  0  0  0  0  0  0  0  0  0  0
   -3.1128    0.7353    1.8201 C   0  0  1  0  0  0  0  0  0  0  0  0
   -3.0782    1.8056    1.9919 H   0  0  0  0  0  0  0  0  0  0  0  0
   -4.5685    0.3650    1.4899 C   0  0  2  0  0  0  0  0  0  0  0  0
   -4.7622    0.6207    0.4484 H   0  0  0  0  0  0  0  0  0  0  0  0
   -5.5117    1.1685    2.3850 C   0  0  2  0  0  0  0  0  0  0  0  0
   -5.2457    1.0149    3.4321 H   0  0  0  0  0  0  0  0  0  0  0  0
   -6.9583    0.7248    2.1607 C   0  0  0  0  0  0  0  0  0  0  0  0
   -7.0695   -0.7869    2.3622 C   0  0  2  0  0  0  0  0  0  0  0  0
   -6.8391   -1.0344    3.3996 H   0  0  0  0  0  0  0  0  0  0  0  0
   -6.0855   -1.5017    1.4364 C   0  0  1  0  0  0  0  0  0  0  0  0
   -4.7617   -1.0327    1.6982 O   0  0  0  0  0  0  0  0  0  0  0  0
   -6.1497   -2.9916    1.6766 C   0  0  0  0  0  0  0  0  0  0  0  0
   -6.8692   -3.6602    0.9753 O   0  0  0  0  0  0  0  0  0  0  0  0
   -5.3151   -3.6391    2.7209 C   0  0  0  0  0  0  0  0  0  0  0  0
   -4.4429   -2.9875    3.2762 O   0  0  0  0  0  0  0  0  0  0  0  0
   -5.5149   -4.9099    3.1110 N   0  0  0  0  0  0  0  0  0  0  0  0
   -6.7961   -5.5956    2.8943 C   0  0  0  0  0  0  0  0  0  0  0  0
   -6.5531   -6.8801    2.1083 C   0  0  0  0  0  0  0  0  0  0  0  0
   -5.3646   -7.6608    2.6485 C   0  0  0  0  0  0  0  0  0  0  0  0
   -4.8786   -7.1089    3.9845 C   0  0  0  0  0  0  0  0  0  0  0  0
   -4.4547   -5.6442    3.8175 C   0  0  1  0  0  0  0  0  0  0  0  0
   -4.3057   -5.1978    4.7998 H   0  0  0  0  0  0  0  0  0  0  0  0
   -3.1725   -5.5777    3.0309 C   0  0  0  0  0  0  0  0  0  0  0  0
   -3.1758   -5.7772    1.8401 O   0  0  0  0  0  0  0  0  0  0  0  0
   -2.0260   -5.2928    3.6627 O   0  0  0  0  0  0  0  0  0  0  0  0
   -0.8590   -6.0412    3.3283 C   0  0  1  0  0  0  0  0  0  0  0  0
   -0.7934   -6.1483    2.2452 H   0  0  0  0  0  0  0  0  0  0  0  0
    0.3793   -5.2739    3.8207 C   0  0  1  0  0  0  0  0  0  0  0  0
    1.0980   -5.9733    4.2409 H   0  0  0  0  0  0  0  0  0  0  0  0
    0.9787   -4.5444    2.6203 C   0  0  2  0  0  0  0  0  0  0  0  0
    1.2189   -5.2830    1.8442 H   0  0  0  0  0  0  0  0  0  0  0  0
    2.2481   -3.7804    2.9863 C   0  0  0  0  0  0  0  0  0  0  0  0
    2.3077   -2.5211    2.1576 C   0  0  0  0  0  0  0  0  0  0  0  0
    2.1982   -2.5977    0.9554 O   0  0  0  0  0  0  0  0  0  0  0  0
    2.5204   -1.1809    2.8037 C   0  0  1  0  0  0  0  0  0  0  0  0
    3.5182   -1.2093    3.2879 H   0  0  0  0  0  0  0  0  0  0  0  0
    2.5465   -0.0966    1.7775 C   0  0  0  0  0  0  0  0  0  0  0  0
    1.5429    0.5434    1.2342 C   0  0  0  0  0  0  0  0  0  0  0  0
    0.1047    0.3159    1.5844 C   0  0  0  0  0  0  0  0  0  0  0  0
    1.9370    1.5637    0.1805 C   0  0  0  0  0  0  0  0  0  0  0  0
    1.4942   -0.9260    3.9037 C   0  0  0  0  0  0  0  0  0  0  0  0
    1.8356    0.3539    4.6223 C   0  0  0  0  0  0  0  0  0  0  0  0
    0.9334    1.2954    4.7477 C   0  0  0  0  0  0  0  0  0  0  0  0
    0.0056   -3.6345    2.0970 O   0  0  0  0  0  0  0  0  0  0  0  0
   -0.0641   -4.2742    4.8858 C   0  0  0  0  0  0  0  0  0  0  0  0
   -0.9042   -7.3975    3.9770 C   0  0  0  0  0  0  0  0  0  0  0  0
   -0.7826   -8.4777    3.2459 C   0  0  0  0  0  0  0  0  0  0  0  0
   -0.9536   -9.8365    3.8748 C   0  0  2  0  0  0  0  0  0  0  0  0
   -1.2740   -9.7199    4.9101 H   0  0  0  0  0  0  0  0  0  0  0  0
    0.3783  -10.5883    3.8346 C   0  0  0  0  0  0  0  0  0  0  0  0
    0.2047  -11.9678    4.4732 C   0  0  0  0  0  0  0  0  0  0  0  0
   -0.8511  -12.7591    3.6986 C   0  0  2  0  0  0  0  0  0  0  0  0
   -0.5308  -12.8757    2.6633 H   0  0  0  0  0  0  0  0  0  0  0  0
   -2.1831  -12.0073    3.7388 C   0  0  1  0  0  0  0  0  0  0  0  0
   -2.5034  -11.8907    4.7741 H   0  0  0  0  0  0  0  0  0  0  0  0
   -2.0095  -10.6278    3.1002 C   0  0  0  0  0  0  0  0  0  0  0  0
   -3.1692  -12.7463    3.0153 O   0  0  0  0  0  0  0  0  0  0  0  0
   -3.8960  -13.6822    3.8140 C   0  0  0  0  0  0  0  0  0  0  0  0
   -1.0133  -14.0476    4.2950 O   0  0  0  0  0  0  0  0  0  0  0  0
   -1.0893   -7.5138    5.4681 C   0  0  0  0  0  0  0  0  0  0  0  0
   -6.4241   -1.2281    0.0735 O   0  0  0  0  0  0  0  0  0  0  0  0
   -8.4984   -1.2335    2.0429 C   0  0  0  0  0  0  0  0  0  0  0  0
   -5.3991    2.5597    2.0713 O   0  0  0  0  0  0  0  0  0  0  0  0
   -5.6509    3.4275    3.1784 C   0  0  0  0  0  0  0  0  0  0  0  0
   -2.7247    0.0513    3.0152 O   0  0  0  0  0  0  0  0  0  0  0  0
   -2.7100    0.8790    4.1800 C   0  0  0  0  0  0  0  0  0  0  0  0
   -0.0351    2.9516    0.8455 H   0  0  0  0  0  0  0  0  0  0  0  0
   -1.7036    2.9258    0.2260 H   0  0  0  0  0  0  0  0  0  0  0  0
   -1.3874    2.5906    1.9453 H   0  0  0  0  0  0  0  0  0  0  0  0
   -2.7514    0.4776   -0.2825 H   0  0  0  0  0  0  0  0  0  0  0  0
   -2.0667   -0.7946    0.7372 H   0  0  0  0  0  0  0  0  0  0  0  0
   -7.6074    1.2318    2.8732 H   0  0  0  0  0  0  0  0  0  0  0  0
   -7.2643    0.9802    1.1500 H   0  0  0  0  0  0  0  0  0  0  0  0
   -7.2201   -5.8591    3.8708 H   0  0  0  0  0  0  0  0  0  0  0  0
   -7.4968   -4.9593    2.3694 H   0  0  0  0  0  0  0  0  0  0  0  0
   -7.4435   -7.5057    2.1729 H   0  0  0  0  0  0  0  0  0  0  0  0
   -6.3691   -6.6291    1.0647 H   0  0  0  0  0  0  0  0  0  0  0  0
   -5.6619   -8.7021    2.7844 H   0  0  0  0  0  0  0  0  0  0  0  0
   -4.5527   -7.6189    1.9249 H   0  0  0  0  0  0  0  0  0  0  0  0
   -5.6845   -7.1723    4.7187 H   0  0  0  0  0  0  0  0  0  0  0  0
   -4.0302   -7.6982    4.3353 H   0  0  0  0  0  0  0  0  0  0  0  0
    2.2819   -3.5414    4.0401 H   0  0  0  0  0  0  0  0  0  0  0  0
    3.1181   -4.4006    2.7437 H   0  0  0  0  0  0  0  0  0  0  0  0
    3.5423    0.2235    1.4251 H   0  0  0  0  0  0  0  0  0  0  0  0
   -0.0930    0.7077    2.5842 H   0  0  0  0  0  0  0  0  0  0  0  0
   -0.0962   -0.7625    1.5888 H   0  0  0  0  0  0  0  0  0  0  0  0
    3.0214    1.5718    0.0702 H   0  0  0  0  0  0  0  0  0  0  0  0
    1.4770    1.2989   -0.7716 H   0  0  0  0  0  0  0  0  0  0  0  0
    1.5955    2.5525    0.4865 H   0  0  0  0  0  0  0  0  0  0  0  0
    0.5015   -0.8409    3.4619 H   0  0  0  0  0  0  0  0  0  0  0  0
    1.5071   -1.7547    4.6116 H   0  0  0  0  0  0  0  0  0  0  0  0
    2.8241    0.4949    5.0340 H   0  0  0  0  0  0  0  0  0  0  0  0
   -0.0408    1.1731    4.2978 H   0  0  0  0  0  0  0  0  0  0  0  0
    1.1638    2.1938    5.3010 H   0  0  0  0  0  0  0  0  0  0  0  0
    0.3106   -3.1309    1.3299 H   0  0  0  0  0  0  0  0  0  0  0  0
   -0.5257   -4.8087    5.7161 H   0  0  0  0  0  0  0  0  0  0  0  0
    0.8022   -3.7201    5.2472 H   0  0  0  0  0  0  0  0  0  0  0  0
   -0.7855   -3.5800    4.4547 H   0  0  0  0  0  0  0  0  0  0  0  0
   -0.5599   -8.3944    2.1924 H   0  0  0  0  0  0  0  0  0  0  0  0
    0.6987  -10.7049    2.7993 H   0  0  0  0  0  0  0  0  0  0  0  0
    1.1305  -10.0246    4.3865 H   0  0  0  0  0  0  0  0  0  0  0  0
    1.1536  -12.5034    4.4446 H   0  0  0  0  0  0  0  0  0  0  0  0
   -0.1156  -11.8513    5.5085 H   0  0  0  0  0  0  0  0  0  0  0  0
   -2.9583  -10.0921    3.1289 H   0  0  0  0  0  0  0  0  0  0  0  0
   -1.6891  -10.7443    2.0649 H   0  0  0  0  0  0  0  0  0  0  0  0
   -3.2043  -14.4057    4.2456 H   0  0  0  0  0  0  0  0  0  0  0  0
   -4.4136  -13.1525    4.6138 H   0  0  0  0  0  0  0  0  0  0  0  0
   -4.6244  -14.2023    3.1919 H   0  0  0  0  0  0  0  0  0  0  0  0
   -0.2068  -14.5810    4.3042 H   0  0  0  0  0  0  0  0  0  0  0  0
   -2.1475   -7.6455    5.6937 H   0  0  0  0  0  0  0  0  0  0  0  0
   -0.5293   -8.3728    5.8378 H   0  0  0  0  0  0  0  0  0  0  0  0
   -0.7249   -6.6072    5.9512 H   0  0  0  0  0  0  0  0  0  0  0  0
   -5.8392   -1.6515   -0.5697 H   0  0  0  0  0  0  0  0  0  0  0  0
   -8.7345   -0.9841    1.0084 H   0  0  0  0  0  0  0  0  0  0  0  0
   -8.5827   -2.3109    2.1851 H   0  0  0  0  0  0  0  0  0  0  0  0
   -9.1956   -0.7236    2.7077 H   0  0  0  0  0  0  0  0  0  0  0  0
   -4.9357    3.2182    3.9740 H   0  0  0  0  0  0  0  0  0  0  0  0
   -5.5457    4.4642    2.8588 H   0  0  0  0  0  0  0  0  0  0  0  0
   -6.6632    3.2618    3.5470 H   0  0  0  0  0  0  0  0  0  0  0  0
   -2.0883    1.7551    3.9953 H   0  0  0  0  0  0  0  0  0  0  0  0
   -3.7263    1.1972    4.4124 H   0  0  0  0  0  0  0  0  0  0  0  0
   -2.3043    0.3162    5.0206 H   0  0  0  0  0  0  0  0  0  0  0  0
  1  2  1  0  0  0  0
  1 71  1  0  0  0  0
  1 72  1  0  0  0  0
  1 73  1  0  0  0  0
  2  3  1  6  0  0  0
  2 43  1  0  0  0  0
  2  4  1  0  0  0  0
  4  5  1  0  0  0  0
  4 74  1  0  0  0  0
  4 75  1  0  0  0  0
  5  6  1  1  0  0  0
  5  7  1  0  0  0  0
  5 69  1  0  0  0  0
  7  8  1  6  0  0  0
  7 15  1  0  0  0  0
  7  9  1  0  0  0  0
  9 10  1  1  0  0  0
  9 11  1  0  0  0  0
  9 67  1  0  0  0  0
 11 12  1  0  0  0  0
 11 76  1  0  0  0  0
 11 77  1  0  0  0  0
 12 13  1  1  0  0  0
 12 14  1  0  0  0  0
 12 66  1  0  0  0  0
 14 15  1  0  0  0  0
 14 16  1  0  0  0  0
 14 65  1  6  0  0  0
 16 17  2  0  0  0  0
 16 18  1  0  0  0  0
 18 19  2  0  0  0  0
 18 20  1  0  0  0  0
 20 25  1  0  0  0  0
 20 21  1  0  0  0  0
 21 22  1  0  0  0  0
 21 78  1  0  0  0  0
 21 79  1  0  0  0  0
 22 23  1  0  0  0  0
 22 80  1  0  0  0  0
 22 81  1  0  0  0  0
 23 24  1  0  0  0  0
 23 82  1  0  0  0  0
 23 83  1  0  0  0  0
 24 25  1  0  0  0  0
 24 84  1  0  0  0  0
 24 85  1  0  0  0  0
 25 26  1  1  0  0  0
 25 27  1  0  0  0  0
 27 28  2  0  0  0  0
 27 29  1  0  0  0  0
 29 30  1  0  0  0  0
 30 31  1  6  0  0  0
 30 32  1  0  0  0  0
 30 50  1  0  0  0  0
 32 33  1  1  0  0  0
 32 34  1  0  0  0  0
 32 49  1  0  0  0  0
 34 35  1  6  0  0  0
 34 36  1  0  0  0  0
 34 48  1  0  0  0  0
 36 37  1  0  0  0  0
 36 86  1  0  0  0  0
 36 87  1  0  0  0  0
 37 38  2  0  0  0  0
 37 39  1  0  0  0  0
 39 40  1  1  0  0  0
 39 41  1  0  0  0  0
 39 45  1  0  0  0  0
 41 42  2  0  0  0  0
 41 88  1  0  0  0  0
 42 43  1  0  0  0  0
 42 44  1  0  0  0  0
 43 89  1  0  0  0  0
 43 90  1  0  0  0  0
 44 91  1  0  0  0  0
 44 92  1  0  0  0  0
 44 93  1  0  0  0  0
 45 46  1  0  0  0  0
 45 94  1  0  0  0  0
 45 95  1  0  0  0  0
 46 47  2  0  0  0  0
 46 96  1  0  0  0  0
 47 97  1  0  0  0  0
 47 98  1  0  0  0  0
 48 99  1  0  0  0  0
 49100  1  0  0  0  0
 49101  1  0  0  0  0
 49102  1  0  0  0  0
 50 51  2  0  0  0  0
 50 64  1  0  0  0  0
 51 52  1  0  0  0  0
 51103  1  0  0  0  0
 52 53  1  1  0  0  0
 52 60  1  0  0  0  0
 52 54  1  0  0  0  0
 54 55  1  0  0  0  0
 54104  1  0  0  0  0
 54105  1  0  0  0  0
 55 56  1  0  0  0  0
 55106  1  0  0  0  0
 55107  1  0  0  0  0
 56 57  1  6  0  0  0
 56 58  1  0  0  0  0
 56 63  1  0  0  0  0
 58 59  1  1  0  0  0
 58 60  1  0  0  0  0
 58 61  1  0  0  0  0
 60108  1  0  0  0  0
 60109  1  0  0  0  0
 61 62  1  0  0  0  0
 62110  1  0  0  0  0
 62111  1  0  0  0  0
 62112  1  0  0  0  0
 63113  1  0  0  0  0
 64114  1  0  0  0  0
 64115  1  0  0  0  0
 64116  1  0  0  0  0
 65117  1  0  0  0  0
 66118  1  0  0  0  0
 66119  1  0  0  0  0
 66120  1  0  0  0  0
 67 68  1  0  0  0  0
 68121  1  0  0  0  0
 68122  1  0  0  0  0
 68123  1  0  0  0  0
 69 70  1  0  0  0  0
 70124  1  0  0  0  0
 70125  1  0  0  0  0
 70126  1  0  0  0  0
M  END
$$$$
