ZINC03842753
 OpenBabel08292219463D

 31 32  0  0  1  0  0  0  0  0999 V2000
   -0.0165    1.3641    0.0095 C   0  0  0  0  0  0  0  0  0  0  0  0
    1.1473    2.0487    0.0021 C   0  0  0  0  0  0  0  0  0  0  0  0
    2.3681    1.3318   -0.0134 C   0  0  0  0  0  0  0  0  0  0  0  0
    3.4303    1.9273   -0.0199 O   0  0  0  0  0  0  0  0  0  0  0  0
    2.3436   -0.0163   -0.0204 N   0  0  0  0  0  0  0  0  0  0  0  0
    3.1758   -0.5145   -0.0307 H   0  0  0  0  0  0  0  0  0  0  0  0
    1.1690   -0.6735   -0.0127 C   0  0  0  0  0  0  0  0  0  0  0  0
    1.1625   -1.8893   -0.0192 O   0  0  0  0  0  0  0  0  0  0  0  0
    0.0021   -0.0041    0.0020 N   0  0  0  0  0  0  0  0  0  0  0  0
   -1.2606   -0.7469    0.0106 C   0  0  1  0  0  0  0  0  0  0  0  0
   -2.1016   -0.0630    0.1241 H   0  0  0  0  0  0  0  0  0  0  0  0
   -1.4088   -1.5706   -1.2879 C   0  0  0  0  0  0  0  0  0  0  0  0
   -2.0851   -2.8808   -0.8263 C   0  0  1  0  0  0  0  0  0  0  0  0
   -1.4415   -3.7360   -1.0325 H   0  0  0  0  0  0  0  0  0  0  0  0
   -2.2655   -2.6938    0.6965 C   0  0  2  0  0  0  0  0  0  0  0  0
   -3.2616   -2.3099    0.9163 H   0  0  0  0  0  0  0  0  0  0  0  0
   -1.2611   -1.7253    1.0730 O   0  0  0  0  0  0  0  0  0  0  0  0
   -2.0331   -4.0180    1.4270 C   0  0  0  0  0  0  0  0  0  0  0  0
   -2.3177   -3.8513    2.8174 O   0  0  0  0  0  0  0  0  0  0  0  0
   -3.3519   -3.0432   -1.4672 O   0  0  0  0  0  0  0  0  0  0  0  0
    1.1468    3.5557    0.0097 C   0  0  0  0  0  0  0  0  0  0  0  0
    1.2739    4.0154    1.3249 F   0  0  0  0  0  0  0  0  0  0  0  0
    2.2200    4.0262   -0.7545 F   0  0  0  0  0  0  0  0  0  0  0  0
   -0.0539    4.0244   -0.5342 F   0  0  0  0  0  0  0  0  0  0  0  0
   -0.9575    1.8939    0.0259 H   0  0  0  0  0  0  0  0  0  0  0  0
   -2.0418   -1.0454   -2.0031 H   0  0  0  0  0  0  0  0  0  0  0  0
   -0.4308   -1.7780   -1.7223 H   0  0  0  0  0  0  0  0  0  0  0  0
   -2.6892   -4.7825    1.0109 H   0  0  0  0  0  0  0  0  0  0  0  0
   -0.9943   -4.3239    1.3029 H   0  0  0  0  0  0  0  0  0  0  0  0
   -2.1915   -4.6528    3.3435 H   0  0  0  0  0  0  0  0  0  0  0  0
   -3.3001   -3.1057   -2.4307 H   0  0  0  0  0  0  0  0  0  0  0  0
  1  9  1  0  0  0  0
  1  2  2  0  0  0  0
  1 25  1  0  0  0  0
  2  3  1  0  0  0  0
  2 21  1  0  0  0  0
  3  4  2  0  0  0  0
  3  5  1  0  0  0  0
  5  6  1  0  0  0  0
  5  7  1  0  0  0  0
  7  8  2  0  0  0  0
  7  9  1  0  0  0  0
  9 10  1  0  0  0  0
 10 11  1  1  0  0  0
 10 17  1  0  0  0  0
 10 12  1  0  0  0  0
 12 13  1  0  0  0  0
 12 26  1  0  0  0  0
 12 27  1  0  0  0  0
 13 14  1  6  0  0  0
 13 15  1  0  0  0  0
 13 20  1  0  0  0  0
 15 16  1  1  0  0  0
 15 17  1  0  0  0  0
 15 18  1  0  0  0  0
 18 19  1  0  0  0  0
 18 28  1  0  0  0  0
 18 29  1  0  0  0  0
 19 30  1  0  0  0  0
 20 31  1  0  0  0  0
 21 22  1  0  0  0  0
 21 23  1  0  0  0  0
 21 24  1  0  0  0  0
M  END
$$$$
