ZINC19632628
 OpenBabel08292219463D

 52 55  0  0  0  0  0  0  0  0999 V2000
   -0.4222    1.1482    0.6028 C   0  0  0  0  0  0  0  0  0  0  0  0
    0.6601    2.0108    0.6026 C   0  0  0  0  0  0  0  0  0  0  0  0
    1.9368    1.5210    0.3963 C   0  0  0  0  0  0  0  0  0  0  0  0
    2.1340    0.1654    0.1908 C   0  0  0  0  0  0  0  0  0  0  0  0
    1.0452   -0.7167    0.1927 C   0  0  0  0  0  0  0  0  0  0  0  0
   -0.2395   -0.2037    0.4004 C   0  0  0  0  0  0  0  0  0  0  0  0
    1.2251   -2.1556   -0.0120 C   0  0  0  0  0  0  0  0  0  0  0  0
    2.0971   -2.9363    0.4789 N   0  0  0  0  0  0  0  0  0  0  0  0
    3.1087   -2.7110    1.3539 C   0  0  0  0  0  0  0  0  0  0  0  0
    3.2947   -3.6064    2.4136 C   0  0  0  0  0  0  0  0  0  0  0  0
    4.3181   -3.4115    3.3191 C   0  0  0  0  0  0  0  0  0  0  0  0
    5.1704   -2.3312    3.1890 C   0  0  0  0  0  0  0  0  0  0  0  0
    4.9978   -1.4353    2.1471 C   0  0  0  0  0  0  0  0  0  0  0  0
    3.9732   -1.6184    1.2348 C   0  0  0  0  0  0  0  0  0  0  0  0
    3.7601   -0.4608   -0.0781 S   0  0  0  0  0  0  0  0  0  0  0  0
    0.3163   -2.7473   -0.8595 N   0  0  0  0  0  0  0  0  0  0  0  0
   -0.6501   -1.9363   -1.6155 C   0  0  0  0  0  0  0  0  0  0  0  0
   -0.5734   -2.3385   -3.0921 C   0  0  0  0  0  0  0  0  0  0  0  0
   -0.7548   -3.7915   -3.2106 N   0  0  0  0  0  0  0  0  0  0  0  0
    0.3255   -4.5204   -2.5327 C   0  0  0  0  0  0  0  0  0  0  0  0
    0.2897   -4.2071   -1.0378 C   0  0  0  0  0  0  0  0  0  0  0  0
   -0.8596   -4.1958   -4.6190 C   0  0  0  0  0  0  0  0  0  0  0  0
   -1.2935   -5.6609   -4.6980 C   0  0  0  0  0  0  0  0  0  0  0  0
   -2.6131   -5.7962   -4.1666 O   0  0  0  0  0  0  0  0  0  0  0  0
   -3.1162   -7.1334   -4.1936 C   0  0  0  0  0  0  0  0  0  0  0  0
   -4.5277   -7.1593   -3.6039 C   0  0  0  0  0  0  0  0  0  0  0  0
   -5.4078   -6.4072   -4.4416 O   0  0  0  0  0  0  0  0  0  0  0  0
   -1.4167    1.5359    0.7671 H   0  0  0  0  0  0  0  0  0  0  0  0
    0.5074    3.0678    0.7633 H   0  0  0  0  0  0  0  0  0  0  0  0
    2.7802    2.1956    0.3949 H   0  0  0  0  0  0  0  0  0  0  0  0
   -1.0908   -0.8682    0.4022 H   0  0  0  0  0  0  0  0  0  0  0  0
    2.6340   -4.4536    2.5234 H   0  0  0  0  0  0  0  0  0  0  0  0
    4.4539   -4.1074    4.1338 H   0  0  0  0  0  0  0  0  0  0  0  0
    5.9705   -2.1856    3.8997 H   0  0  0  0  0  0  0  0  0  0  0  0
    5.6644   -0.5916    2.0462 H   0  0  0  0  0  0  0  0  0  0  0  0
   -1.6561   -2.1191   -1.2380 H   0  0  0  0  0  0  0  0  0  0  0  0
   -0.4029   -0.8799   -1.5104 H   0  0  0  0  0  0  0  0  0  0  0  0
   -1.3582   -1.8273   -3.6496 H   0  0  0  0  0  0  0  0  0  0  0  0
    0.4003   -2.0595   -3.4950 H   0  0  0  0  0  0  0  0  0  0  0  0
    0.1926   -5.5915   -2.6845 H   0  0  0  0  0  0  0  0  0  0  0  0
    1.2866   -4.2109   -2.9434 H   0  0  0  0  0  0  0  0  0  0  0  0
    1.1579   -4.6513   -0.5510 H   0  0  0  0  0  0  0  0  0  0  0  0
   -0.6243   -4.6124   -0.6037 H   0  0  0  0  0  0  0  0  0  0  0  0
   -1.5972   -3.5708   -5.1225 H   0  0  0  0  0  0  0  0  0  0  0  0
    0.1092   -4.0770   -5.1042 H   0  0  0  0  0  0  0  0  0  0  0  0
   -1.2855   -5.9865   -5.7382 H   0  0  0  0  0  0  0  0  0  0  0  0
   -0.6040   -6.2757   -4.1195 H   0  0  0  0  0  0  0  0  0  0  0  0
   -3.1461   -7.4897   -5.2233 H   0  0  0  0  0  0  0  0  0  0  0  0
   -2.4645   -7.7788   -3.6046 H   0  0  0  0  0  0  0  0  0  0  0  0
   -4.8770   -8.1899   -3.5424 H   0  0  0  0  0  0  0  0  0  0  0  0
   -4.5127   -6.7206   -2.6061 H   0  0  0  0  0  0  0  0  0  0  0  0
   -6.3221   -6.3804   -4.1280 H   0  0  0  0  0  0  0  0  0  0  0  0
  1  6  2  0  0  0  0
  1  2  1  0  0  0  0
  1 28  1  0  0  0  0
  2  3  2  0  0  0  0
  2 29  1  0  0  0  0
  3  4  1  0  0  0  0
  3 30  1  0  0  0  0
  4 15  1  0  0  0  0
  4  5  2  0  0  0  0
  5  6  1  0  0  0  0
  5  7  1  0  0  0  0
  6 31  1  0  0  0  0
  7  8  2  0  0  0  0
  7 16  1  0  0  0  0
  8  9  1  0  0  0  0
  9 14  2  0  0  0  0
  9 10  1  0  0  0  0
 10 11  2  0  0  0  0
 10 32  1  0  0  0  0
 11 12  1  0  0  0  0
 11 33  1  0  0  0  0
 12 13  2  0  0  0  0
 12 34  1  0  0  0  0
 13 14  1  0  0  0  0
 13 35  1  0  0  0  0
 14 15  1  0  0  0  0
 16 21  1  0  0  0  0
 16 17  1  0  0  0  0
 17 18  1  0  0  0  0
 17 36  1  0  0  0  0
 17 37  1  0  0  0  0
 18 19  1  0  0  0  0
 18 38  1  0  0  0  0
 18 39  1  0  0  0  0
 19 20  1  0  0  0  0
 19 22  1  0  0  0  0
 20 21  1  0  0  0  0
 20 40  1  0  0  0  0
 20 41  1  0  0  0  0
 21 42  1  0  0  0  0
 21 43  1  0  0  0  0
 22 23  1  0  0  0  0
 22 44  1  0  0  0  0
 22 45  1  0  0  0  0
 23 24  1  0  0  0  0
 23 46  1  0  0  0  0
 23 47  1  0  0  0  0
 24 25  1  0  0  0  0
 25 26  1  0  0  0  0
 25 48  1  0  0  0  0
 25 49  1  0  0  0  0
 26 27  1  0  0  0  0
 26 50  1  0  0  0  0
 26 51  1  0  0  0  0
 27 52  1  0  0  0  0
M  END
$$$$
