ZINC01999544
 OpenBabel08292219463D

 43 43  0  0  1  0  0  0  0  0999 V2000
   -0.0187    1.5258    0.0104 C   0  0  0  0  0  0  0  0  0  0  0  0
    0.0021   -0.0041    0.0020 C   0  0  0  0  0  0  0  0  0  0  0  0
    0.7421   -0.5109    1.2415 C   0  0  0  0  0  0  0  0  0  0  0  0
   -1.3761   -0.5125    0.0124 N   0  3  0  0  0  0  0  0  0  0  0  0
   -1.3591   -1.9758   -0.1163 C   0  0  0  0  0  0  0  0  0  0  0  0
   -2.7945   -2.5054   -0.1054 C   0  0  1  0  0  0  0  0  0  0  0  0
   -3.3474   -2.0736   -0.9397 H   0  0  0  0  0  0  0  0  0  0  0  0
   -2.7769   -4.0294   -0.2395 C   0  0  0  0  0  0  0  0  0  0  0  0
   -4.1170   -4.5137   -0.3464 O   0  0  0  0  0  0  0  0  0  0  0  0
   -4.2795   -5.8579   -0.4732 C   0  0  0  0  0  0  0  0  0  0  0  0
   -3.1735   -6.6926   -0.4884 C   0  0  0  0  0  0  0  0  0  0  0  0
   -3.3404   -8.0589   -0.6169 C   0  0  0  0  0  0  0  0  0  0  0  0
   -4.6093   -8.5957   -0.7309 C   0  0  0  0  0  0  0  0  0  0  0  0
   -5.7169   -7.7686   -0.7169 C   0  0  0  0  0  0  0  0  0  0  0  0
   -5.5570   -6.3988   -0.5822 C   0  0  0  0  0  0  0  0  0  0  0  0
   -6.6458   -5.5842   -0.5622 O   0  0  0  0  0  0  0  0  0  0  0  0
   -7.9257   -6.2090   -0.6787 C   0  0  0  0  0  0  0  0  0  0  0  0
   -9.0039   -5.1570   -0.6371 C   0  0  0  0  0  0  0  0  0  0  0  0
   -9.9935   -5.1992   -1.4945 C   0  0  0  0  0  0  0  0  0  0  0  0
   -3.4268   -2.1426    1.1237 O   0  0  0  0  0  0  0  0  0  0  0  0
    1.0039    1.9031    0.0027 H   0  0  0  0  0  0  0  0  0  0  0  0
   -0.5459    1.8868   -0.8726 H   0  0  0  0  0  0  0  0  0  0  0  0
   -0.5289    1.8773    0.9072 H   0  0  0  0  0  0  0  0  0  0  0  0
    0.5123   -0.3556   -0.8948 H   0  0  0  0  0  0  0  0  0  0  0  0
    0.2319   -0.1594    2.1383 H   0  0  0  0  0  0  0  0  0  0  0  0
    0.7568   -1.6008    1.2356 H   0  0  0  0  0  0  0  0  0  0  0  0
    1.7647   -0.1336    1.2338 H   0  0  0  0  0  0  0  0  0  0  0  0
   -1.8225   -0.2564    0.8803 H   0  0  0  0  0  0  0  0  0  0  0  0
   -0.8769   -2.2525   -1.0538 H   0  0  0  0  0  0  0  0  0  0  0  0
   -0.8062   -2.4075    0.7180 H   0  0  0  0  0  0  0  0  0  0  0  0
   -2.2171   -4.3091   -1.1320 H   0  0  0  0  0  0  0  0  0  0  0  0
   -2.3018   -4.4659    0.6390 H   0  0  0  0  0  0  0  0  0  0  0  0
   -2.1811   -6.2757   -0.4003 H   0  0  0  0  0  0  0  0  0  0  0  0
   -2.4776   -8.7083   -0.6286 H   0  0  0  0  0  0  0  0  0  0  0  0
   -4.7356   -9.6636   -0.8314 H   0  0  0  0  0  0  0  0  0  0  0  0
   -6.7071   -8.1904   -0.8064 H   0  0  0  0  0  0  0  0  0  0  0  0
   -7.9815   -6.7495   -1.6236 H   0  0  0  0  0  0  0  0  0  0  0  0
   -8.0662   -6.9061    0.1474 H   0  0  0  0  0  0  0  0  0  0  0  0
   -8.9608   -4.3683    0.0994 H   0  0  0  0  0  0  0  0  0  0  0  0
  -10.0367   -5.9879   -2.2310 H   0  0  0  0  0  0  0  0  0  0  0  0
  -10.7663   -4.4453   -1.4647 H   0  0  0  0  0  0  0  0  0  0  0  0
   -2.9873   -2.4932    1.9105 H   0  0  0  0  0  0  0  0  0  0  0  0
   -1.8879   -0.1129   -0.7598 H   0  0  0  0  0  0  0  0  0  0  0  0
  1  2  1  0  0  0  0
  1 21  1  0  0  0  0
  1 22  1  0  0  0  0
  1 23  1  0  0  0  0
  2  3  1  0  0  0  0
  2  4  1  0  0  0  0
  2 24  1  0  0  0  0
  3 25  1  0  0  0  0
  3 26  1  0  0  0  0
  3 27  1  0  0  0  0
  4  5  1  0  0  0  0
  4 28  1  0  0  0  0
  4 43  1  0  0  0  0
  5  6  1  0  0  0  0
  5 29  1  0  0  0  0
  5 30  1  0  0  0  0
  6  7  1  6  0  0  0
  6  8  1  0  0  0  0
  6 20  1  0  0  0  0
  8  9  1  0  0  0  0
  8 31  1  0  0  0  0
  8 32  1  0  0  0  0
  9 10  1  0  0  0  0
 10 15  2  0  0  0  0
 10 11  1  0  0  0  0
 11 12  2  0  0  0  0
 11 33  1  0  0  0  0
 12 13  1  0  0  0  0
 12 34  1  0  0  0  0
 13 14  2  0  0  0  0
 13 35  1  0  0  0  0
 14 15  1  0  0  0  0
 14 36  1  0  0  0  0
 15 16  1  0  0  0  0
 16 17  1  0  0  0  0
 17 18  1  0  0  0  0
 17 37  1  0  0  0  0
 17 38  1  0  0  0  0
 18 19  2  0  0  0  0
 18 39  1  0  0  0  0
 19 40  1  0  0  0  0
 19 41  1  0  0  0  0
 20 42  1  0  0  0  0
M  CHG  1   4   1
M  END
$$$$
