ZINC00012342
 OpenBabel08292219463D

 44 45  0  0  1  0  0  0  0  0999 V2000
   -0.0187    1.5258    0.0104 C   0  0  0  0  0  0  0  0  0  0  0  0
    0.0021   -0.0041    0.0020 C   0  0  2  0  0  0  0  0  0  0  0  0
    0.5293   -0.3651    0.8851 H   0  0  0  0  0  0  0  0  0  0  0  0
    0.7182   -0.4975   -1.2568 C   0  0  0  0  0  0  0  0  0  0  0  0
    2.1652   -0.0794   -1.2080 C   0  0  0  0  0  0  0  0  0  0  0  0
    2.5498    1.1377   -1.7391 C   0  0  0  0  0  0  0  0  0  0  0  0
    3.8760    1.5258   -1.6968 C   0  0  0  0  0  0  0  0  0  0  0  0
    4.8231    0.6944   -1.1208 C   0  0  0  0  0  0  0  0  0  0  0  0
    4.4359   -0.5305   -0.5858 C   0  0  0  0  0  0  0  0  0  0  0  0
    3.1042   -0.9112   -0.6272 C   0  0  0  0  0  0  0  0  0  0  0  0
    5.3617   -1.3499   -0.0194 O   0  0  0  0  0  0  0  0  0  0  0  0
    6.1281    1.0745   -1.0788 O   0  0  0  0  0  0  0  0  0  0  0  0
   -1.4333   -0.5336    0.0129 C   0  0  1  0  0  0  0  0  0  0  0  0
   -1.9605   -0.1726   -0.8702 H   0  0  0  0  0  0  0  0  0  0  0  0
   -1.4126   -2.0635    0.0045 C   0  0  0  0  0  0  0  0  0  0  0  0
   -2.1494   -0.0402    1.2717 C   0  0  0  0  0  0  0  0  0  0  0  0
   -3.5965   -0.4583    1.2229 C   0  0  0  0  0  0  0  0  0  0  0  0
   -4.5346    0.3711    0.6369 C   0  0  0  0  0  0  0  0  0  0  0  0
   -5.8633   -0.0079    0.5896 C   0  0  0  0  0  0  0  0  0  0  0  0
   -6.2571   -1.2216    1.1299 C   0  0  0  0  0  0  0  0  0  0  0  0
   -5.3128   -2.0566    1.7193 C   0  0  0  0  0  0  0  0  0  0  0  0
   -3.9819   -1.6728    1.7591 C   0  0  0  0  0  0  0  0  0  0  0  0
   -5.6945   -3.2487    2.2510 O   0  0  0  0  0  0  0  0  0  0  0  0
   -7.5638   -1.5957    1.0847 O   0  0  0  0  0  0  0  0  0  0  0  0
    1.0039    1.9031    0.0027 H   0  0  0  0  0  0  0  0  0  0  0  0
   -0.5459    1.8868   -0.8726 H   0  0  0  0  0  0  0  0  0  0  0  0
   -0.5289    1.8773    0.9072 H   0  0  0  0  0  0  0  0  0  0  0  0
    0.6556   -1.5845   -1.3079 H   0  0  0  0  0  0  0  0  0  0  0  0
    0.2444   -0.0644   -2.1377 H   0  0  0  0  0  0  0  0  0  0  0  0
    1.8126    1.7866   -2.1884 H   0  0  0  0  0  0  0  0  0  0  0  0
    4.1739    2.4768   -2.1131 H   0  0  0  0  0  0  0  0  0  0  0  0
    2.8006   -1.8597   -0.2093 H   0  0  0  0  0  0  0  0  0  0  0  0
    5.4917   -1.2014    0.9273 H   0  0  0  0  0  0  0  0  0  0  0  0
    6.3681    1.5701   -0.2838 H   0  0  0  0  0  0  0  0  0  0  0  0
   -0.9024   -2.4150   -0.8923 H   0  0  0  0  0  0  0  0  0  0  0  0
   -0.8854   -2.4246    0.8875 H   0  0  0  0  0  0  0  0  0  0  0  0
   -2.4352   -2.4408    0.0122 H   0  0  0  0  0  0  0  0  0  0  0  0
   -1.6756   -0.4733    2.1526 H   0  0  0  0  0  0  0  0  0  0  0  0
   -2.0868    1.0468    1.3228 H   0  0  0  0  0  0  0  0  0  0  0  0
   -4.2289    1.3173    0.2154 H   0  0  0  0  0  0  0  0  0  0  0  0
   -6.5943    0.6421    0.1319 H   0  0  0  0  0  0  0  0  0  0  0  0
   -3.2464   -2.3207    2.2126 H   0  0  0  0  0  0  0  0  0  0  0  0
   -5.6653   -3.9856    1.6255 H   0  0  0  0  0  0  0  0  0  0  0  0
   -7.8025   -2.0960    0.2923 H   0  0  0  0  0  0  0  0  0  0  0  0
  1  2  1  0  0  0  0
  1 25  1  0  0  0  0
  1 26  1  0  0  0  0
  1 27  1  0  0  0  0
  2  3  1  1  0  0  0
  2  4  1  0  0  0  0
  2 13  1  0  0  0  0
  4  5  1  0  0  0  0
  4 28  1  0  0  0  0
  4 29  1  0  0  0  0
  5 10  2  0  0  0  0
  5  6  1  0  0  0  0
  6  7  2  0  0  0  0
  6 30  1  0  0  0  0
  7  8  1  0  0  0  0
  7 31  1  0  0  0  0
  8  9  2  0  0  0  0
  8 12  1  0  0  0  0
  9 10  1  0  0  0  0
  9 11  1  0  0  0  0
 10 32  1  0  0  0  0
 11 33  1  0  0  0  0
 12 34  1  0  0  0  0
 13 14  1  6  0  0  0
 13 15  1  0  0  0  0
 13 16  1  0  0  0  0
 15 35  1  0  0  0  0
 15 36  1  0  0  0  0
 15 37  1  0  0  0  0
 16 17  1  0  0  0  0
 16 38  1  0  0  0  0
 16 39  1  0  0  0  0
 17 22  2  0  0  0  0
 17 18  1  0  0  0  0
 18 19  2  0  0  0  0
 18 40  1  0  0  0  0
 19 20  1  0  0  0  0
 19 41  1  0  0  0  0
 20 21  2  0  0  0  0
 20 24  1  0  0  0  0
 21 22  1  0  0  0  0
 21 23  1  0  0  0  0
 22 42  1  0  0  0  0
 23 43  1  0  0  0  0
 24 44  1  0  0  0  0
M  END
$$$$
