ZINC03873365
 OpenBabel08292219463D

 56 60  0  0  1  0  0  0  0  0999 V2000
    0.0016    1.5602   -0.1416 C   0  0  0  0  0  0  0  0  0  0  0  0
    0.0118    0.0266   -0.1139 C   0  0  1  0  0  0  0  0  0  0  0  0
    0.6232   -0.5600   -1.3813 C   0  0  0  0  0  0  0  0  0  0  0  0
    2.1279   -0.3633   -1.4459 C   0  0  0  0  0  0  0  0  0  0  0  0
    2.8614   -0.9145   -0.2330 C   0  0  1  0  0  0  0  0  0  0  0  0
    3.8471   -0.3477   -0.2362 H   0  0  0  0  0  0  0  0  0  0  0  0
    2.2167   -0.5291    1.0646 C   0  0  1  0  0  0  0  0  0  0  0  0
    2.4911    0.5642    1.1873 H   0  0  0  0  0  0  0  0  0  0  0  0
    0.7184   -0.5147    1.1386 C   0  0  2  0  0  0  0  0  0  0  0  0
    0.4599    0.1899    1.9649 H   0  0  0  0  0  0  0  0  0  0  0  0
    0.0632   -1.8516    1.4921 C   0  0  0  0  0  0  0  0  0  0  0  0
   -1.2055   -1.9543    0.6159 C   0  0  0  0  0  0  0  0  0  0  0  0
   -1.4243   -0.5442    0.0359 C   0  0  2  0  0  0  0  0  0  0  0  0
   -2.1563   -0.6105   -1.2984 C   0  0  0  0  0  0  0  0  0  0  0  0
   -2.1670    0.2518    0.9672 O   0  0  0  0  0  0  0  0  0  0  0  0
    2.8506   -1.1795    2.2879 C   0  0  0  0  0  0  0  0  0  0  0  0
    3.1430   -2.6557    2.0775 C   0  0  0  0  0  0  0  0  0  0  0  0
    4.0158   -2.8629    0.8383 C   0  0  2  0  0  0  0  0  0  0  0  0
    4.9441   -2.2916    0.9575 H   0  0  0  0  0  0  0  0  0  0  0  0
    3.2838   -2.3646   -0.4093 C   0  0  2  0  0  0  0  0  0  0  0  0
    4.2852   -2.3879   -1.5918 C   0  0  0  0  0  0  0  0  0  0  0  0
    4.8501   -3.7787   -1.7042 C   0  0  0  0  0  0  0  0  0  0  0  0
    5.3798   -4.3893   -2.7792 C   0  0  0  0  0  0  0  0  0  0  0  0
    5.7452   -5.6352   -2.4032 N   0  0  0  0  0  0  0  0  0  0  0  0
    6.1453   -6.3117   -2.9707 H   0  0  0  0  0  0  0  0  0  0  0  0
    5.4373   -5.7839   -1.0418 N   0  0  0  0  0  0  0  0  0  0  0  0
    4.8907   -4.6782   -0.6260 C   0  0  0  0  0  0  0  0  0  0  0  0
    4.3539   -4.3549    0.7430 C   0  0  0  0  0  0  0  0  0  0  0  0
    2.1159   -3.2847   -0.7505 C   0  0  0  0  0  0  0  0  0  0  0  0
    1.0268    1.9304   -0.1392 H   0  0  0  0  0  0  0  0  0  0  0  0
   -0.5067    1.9040   -1.0424 H   0  0  0  0  0  0  0  0  0  0  0  0
   -0.5224    1.9360    0.7372 H   0  0  0  0  0  0  0  0  0  0  0  0
    0.3651   -1.6072   -1.4797 H   0  0  0  0  0  0  0  0  0  0  0  0
    0.1965   -0.0314   -2.2529 H   0  0  0  0  0  0  0  0  0  0  0  0
    2.5097   -0.8323   -2.3598 H   0  0  0  0  0  0  0  0  0  0  0  0
    2.3454    0.7123   -1.5375 H   0  0  0  0  0  0  0  0  0  0  0  0
    0.7233   -2.6942    1.3120 H   0  0  0  0  0  0  0  0  0  0  0  0
   -0.2249   -1.8569    2.5546 H   0  0  0  0  0  0  0  0  0  0  0  0
   -1.0464   -2.6695   -0.1914 H   0  0  0  0  0  0  0  0  0  0  0  0
   -2.0600   -2.2520    1.2215 H   0  0  0  0  0  0  0  0  0  0  0  0
   -1.6048   -1.2541   -1.9837 H   0  0  0  0  0  0  0  0  0  0  0  0
   -3.1563   -1.0159   -1.1445 H   0  0  0  0  0  0  0  0  0  0  0  0
   -2.2314    0.3912   -1.7217 H   0  0  0  0  0  0  0  0  0  0  0  0
   -3.0747   -0.0510    1.1073 H   0  0  0  0  0  0  0  0  0  0  0  0
    3.7853   -0.6592    2.5319 H   0  0  0  0  0  0  0  0  0  0  0  0
    2.1768   -1.0653    3.1453 H   0  0  0  0  0  0  0  0  0  0  0  0
    3.6934   -3.0307    2.9533 H   0  0  0  0  0  0  0  0  0  0  0  0
    2.2244   -3.2268    1.9996 H   0  0  0  0  0  0  0  0  0  0  0  0
    3.7653   -2.1288   -2.5090 H   0  0  0  0  0  0  0  0  0  0  0  0
    5.0856   -1.6790   -1.3955 H   0  0  0  0  0  0  0  0  0  0  0  0
    5.4899   -3.9640   -3.7658 H   0  0  0  0  0  0  0  0  0  0  0  0
    5.1190   -4.6013    1.4883 H   0  0  0  0  0  0  0  0  0  0  0  0
    3.4731   -4.9613    0.9465 H   0  0  0  0  0  0  0  0  0  0  0  0
    1.5820   -2.8891   -1.6145 H   0  0  0  0  0  0  0  0  0  0  0  0
    2.4936   -4.2807   -0.9816 H   0  0  0  0  0  0  0  0  0  0  0  0
    1.4377   -3.3418    0.1009 H   0  0  0  0  0  0  0  0  0  0  0  0
  1 30  1  0  0  0  0
  1 31  1  0  0  0  0
  1 32  1  0  0  0  0
  2  1  1  6  0  0  0
  2  9  1  0  0  0  0
  2 13  1  0  0  0  0
  2  3  1  0  0  0  0
  3  4  1  0  0  0  0
  3 33  1  0  0  0  0
  3 34  1  0  0  0  0
  4  5  1  0  0  0  0
  4 35  1  0  0  0  0
  4 36  1  0  0  0  0
  5  6  1  1  0  0  0
  5 20  1  0  0  0  0
  5  7  1  0  0  0  0
  7  8  1  1  0  0  0
  7  9  1  0  0  0  0
  7 16  1  0  0  0  0
  9 10  1  1  0  0  0
  9 11  1  0  0  0  0
 11 12  1  0  0  0  0
 11 37  1  0  0  0  0
 11 38  1  0  0  0  0
 12 13  1  0  0  0  0
 12 39  1  0  0  0  0
 12 40  1  0  0  0  0
 13 14  1  0  0  0  0
 13 15  1  1  0  0  0
 14 41  1  0  0  0  0
 14 42  1  0  0  0  0
 14 43  1  0  0  0  0
 15 44  1  0  0  0  0
 16 17  1  0  0  0  0
 16 45  1  0  0  0  0
 16 46  1  0  0  0  0
 17 18  1  0  0  0  0
 17 47  1  0  0  0  0
 17 48  1  0  0  0  0
 18 19  1  1  0  0  0
 18 28  1  0  0  0  0
 18 20  1  0  0  0  0
 20 21  1  0  0  0  0
 20 29  1  6  0  0  0
 21 22  1  0  0  0  0
 21 49  1  0  0  0  0
 21 50  1  0  0  0  0
 22 27  1  0  0  0  0
 22 23  2  0  0  0  0
 23 24  1  0  0  0  0
 23 51  1  0  0  0  0
 24 25  1  0  0  0  0
 24 26  1  0  0  0  0
 26 27  2  0  0  0  0
 27 28  1  0  0  0  0
 28 52  1  0  0  0  0
 28 53  1  0  0  0  0
 29 54  1  0  0  0  0
 29 55  1  0  0  0  0
 29 56  1  0  0  0  0
M  END
$$$$
