ZINC04214612
 OpenBabel08292219463D

 87 91  0  0  1  0  0  0  0  0999 V2000
    0.0799   -1.6374   -2.7366 C   0  0  0  0  0  0  0  0  0  0  0  0
    0.6757   -0.7696   -1.6262 C   0  0  0  0  0  0  0  0  0  0  0  0
   -0.1555   -0.9303   -0.3518 C   0  0  0  0  0  0  0  0  0  0  0  0
    0.4404   -0.0626    0.7585 C   0  0  0  0  0  0  0  0  0  0  0  0
   -0.3783   -0.2209    2.0138 C   0  0  0  0  0  0  0  0  0  0  0  0
   -1.3397   -0.9527    2.0197 O   0  0  0  0  0  0  0  0  0  0  0  0
   -0.0395    0.4511    3.1253 O   0  0  0  0  0  0  0  0  0  0  0  0
   -0.8732    0.2502    4.2970 C   0  0  0  0  0  0  0  0  0  0  0  0
   -0.3435    1.0792    5.4385 C   0  0  0  0  0  0  0  0  0  0  0  0
    0.6357    1.7682    5.2809 O   0  0  0  0  0  0  0  0  0  0  0  0
   -1.0357    1.0483    6.7768 C   0  0  2  0  0  0  0  0  0  0  0  0
   -0.7368    2.3364    7.5405 C   0  0  0  0  0  0  0  0  0  0  0  0
    0.7132    2.3885    7.9488 C   0  0  0  0  0  0  0  0  0  0  0  0
    1.5133    1.2741    7.9761 C   0  0  0  0  0  0  0  0  0  0  0  0
    2.8532    1.3811    8.3716 C   0  0  0  0  0  0  0  0  0  0  0  0
    3.3878    2.6150    8.7360 C   0  0  0  0  0  0  0  0  0  0  0  0
    2.5670    3.7604    8.7045 C   0  0  0  0  0  0  0  0  0  0  0  0
    1.2358    3.6371    8.3106 C   0  0  0  0  0  0  0  0  0  0  0  0
    0.4400    4.7346    8.2769 O   0  0  0  0  0  0  0  0  0  0  0  0
    3.1165    5.0725    9.0868 C   0  0  0  0  0  0  0  0  0  0  0  0
    2.4093    6.0611    9.0576 O   0  0  0  0  0  0  0  0  0  0  0  0
    4.5296    5.1849    9.5043 C   0  0  0  0  0  0  0  0  0  0  0  0
    5.0573    6.4195    9.8679 C   0  0  0  0  0  0  0  0  0  0  0  0
    6.3827    6.5198   10.2579 C   0  0  0  0  0  0  0  0  0  0  0  0
    7.1910    5.4016   10.2896 C   0  0  0  0  0  0  0  0  0  0  0  0
    6.6840    4.1568    9.9297 C   0  0  0  0  0  0  0  0  0  0  0  0
    5.3478    4.0404    9.5346 C   0  0  0  0  0  0  0  0  0  0  0  0
    4.7973    2.7279    9.1507 C   0  0  0  0  0  0  0  0  0  0  0  0
    5.5056    1.7395    9.1759 O   0  0  0  0  0  0  0  0  0  0  0  0
    7.4823    3.0611    9.9624 O   0  0  0  0  0  0  0  0  0  0  0  0
    8.8360    3.2568   10.3762 C   0  0  0  0  0  0  0  0  0  0  0  0
    3.6364    0.2742    8.4001 O   0  0  0  0  0  0  0  0  0  0  0  0
    1.0135   -0.0930    7.5848 C   0  0  2  0  0  0  0  0  0  0  0  0
    1.3680   -0.3316    6.5821 H   0  0  0  0  0  0  0  0  0  0  0  0
   -0.5129   -0.1337    7.6018 C   0  0  0  0  0  0  0  0  0  0  0  0
    1.5199   -1.0609    8.5060 O   0  0  0  0  0  0  0  0  0  0  0  0
    1.6117   -2.3820    7.9690 C   0  0  2  0  0  0  0  0  0  0  0  0
    0.6764   -2.6379    7.4711 H   0  0  0  0  0  0  0  0  0  0  0  0
    1.8755   -3.3767    9.1024 C   0  0  0  0  0  0  0  0  0  0  0  0
    2.0325   -4.7815    8.5123 C   0  0  1  0  0  0  0  0  0  0  0  0
    1.1011   -5.0814    8.0320 H   0  0  0  0  0  0  0  0  0  0  0  0
    3.1624   -4.7655    7.4781 C   0  0  1  0  0  0  0  0  0  0  0  0
    3.2452   -5.7482    7.0139 H   0  0  0  0  0  0  0  0  0  0  0  0
    2.8489   -3.7172    6.4074 C   0  0  1  0  0  0  0  0  0  0  0  0
    1.9299   -3.9906    5.8890 H   0  0  0  0  0  0  0  0  0  0  0  0
    2.6847   -2.4399    7.0269 O   0  0  0  0  0  0  0  0  0  0  0  0
    4.0014   -3.6531    5.4032 C   0  0  0  0  0  0  0  0  0  0  0  0
    4.3948   -4.4364    8.1223 O   0  0  0  0  0  0  0  0  0  0  0  0
    2.3598   -5.7283    9.5811 N   0  0  0  0  0  0  0  0  0  0  0  0
    1.3745   -6.2867   10.3118 C   0  0  0  0  0  0  0  0  0  0  0  0
    0.2169   -6.0053   10.0844 O   0  0  0  0  0  0  0  0  0  0  0  0
    1.7112   -7.2607   11.4114 C   0  0  0  0  0  0  0  0  0  0  0  0
    0.5318   -7.7009   12.0217 F   0  0  0  0  0  0  0  0  0  0  0  0
    2.3936   -8.3560   10.8712 F   0  0  0  0  0  0  0  0  0  0  0  0
    2.5206   -6.6295   12.3619 F   0  0  0  0  0  0  0  0  0  0  0  0
   -2.4459    0.9175    6.5866 O   0  0  0  0  0  0  0  0  0  0  0  0
    0.6721   -1.5229   -3.6445 H   0  0  0  0  0  0  0  0  0  0  0  0
    0.0895   -2.6821   -2.4259 H   0  0  0  0  0  0  0  0  0  0  0  0
   -0.9463   -1.3254   -2.9304 H   0  0  0  0  0  0  0  0  0  0  0  0
    0.6661    0.2751   -1.9369 H   0  0  0  0  0  0  0  0  0  0  0  0
    1.7020   -1.0816   -1.4324 H   0  0  0  0  0  0  0  0  0  0  0  0
   -0.1458   -1.9751   -0.0411 H   0  0  0  0  0  0  0  0  0  0  0  0
   -1.1817   -0.6183   -0.5456 H   0  0  0  0  0  0  0  0  0  0  0  0
    1.4666   -0.3745    0.9523 H   0  0  0  0  0  0  0  0  0  0  0  0
    0.4307    0.9822    0.4478 H   0  0  0  0  0  0  0  0  0  0  0  0
   -1.8112    0.5283    4.0903 H   0  0  0  0  0  0  0  0  0  0  0  0
   -0.8598   -0.8033    4.5761 H   0  0  0  0  0  0  0  0  0  0  0  0
   -0.9615    3.1919    6.9037 H   0  0  0  0  0  0  0  0  0  0  0  0
   -1.3621    2.3785    8.4323 H   0  0  0  0  0  0  0  0  0  0  0  0
   -0.0259    4.9082    9.1063 H   0  0  0  0  0  0  0  0  0  0  0  0
    4.4331    7.3005    9.8465 H   0  0  0  0  0  0  0  0  0  0  0  0
    6.7868    7.4808   10.5397 H   0  0  0  0  0  0  0  0  0  0  0  0
    8.2228    5.4933   10.5952 H   0  0  0  0  0  0  0  0  0  0  0  0
    9.3257    3.9559    9.6982 H   0  0  0  0  0  0  0  0  0  0  0  0
    8.8517    3.6609   11.3884 H   0  0  0  0  0  0  0  0  0  0  0  0
    9.3631    2.3030   10.3575 H   0  0  0  0  0  0  0  0  0  0  0  0
    3.6446   -0.1800    9.2537 H   0  0  0  0  0  0  0  0  0  0  0  0
   -0.8711   -0.0524    8.6281 H   0  0  0  0  0  0  0  0  0  0  0  0
   -0.8603   -1.0695    7.1640 H   0  0  0  0  0  0  0  0  0  0  0  0
    2.7895   -3.0976    9.6266 H   0  0  0  0  0  0  0  0  0  0  0  0
    1.0377   -3.3650    9.7996 H   0  0  0  0  0  0  0  0  0  0  0  0
    4.1610   -4.6404    4.9697 H   0  0  0  0  0  0  0  0  0  0  0  0
    3.7553   -2.9445    4.6124 H   0  0  0  0  0  0  0  0  0  0  0  0
    4.9091   -3.3287    5.9121 H   0  0  0  0  0  0  0  0  0  0  0  0
    5.1552   -4.4082    7.5257 H   0  0  0  0  0  0  0  0  0  0  0  0
    3.2856   -5.9534    9.7630 H   0  0  0  0  0  0  0  0  0  0  0  0
   -2.8428    1.6384    6.0789 H   0  0  0  0  0  0  0  0  0  0  0  0
  1  2  1  0  0  0  0
  1 57  1  0  0  0  0
  1 58  1  0  0  0  0
  1 59  1  0  0  0  0
  2  3  1  0  0  0  0
  2 60  1  0  0  0  0
  2 61  1  0  0  0  0
  3  4  1  0  0  0  0
  3 62  1  0  0  0  0
  3 63  1  0  0  0  0
  4  5  1  0  0  0  0
  4 64  1  0  0  0  0
  4 65  1  0  0  0  0
  5  6  2  0  0  0  0
  5  7  1  0  0  0  0
  7  8  1  0  0  0  0
  8  9  1  0  0  0  0
  8 66  1  0  0  0  0
  8 67  1  0  0  0  0
  9 10  2  0  0  0  0
 11  9  1  6  0  0  0
 11 35  1  0  0  0  0
 11 12  1  0  0  0  0
 11 56  1  0  0  0  0
 12 13  1  0  0  0  0
 12 68  1  0  0  0  0
 12 69  1  0  0  0  0
 13 18  2  0  0  0  0
 13 14  1  0  0  0  0
 14 15  2  0  0  0  0
 14 33  1  0  0  0  0
 15 16  1  0  0  0  0
 15 32  1  0  0  0  0
 16 28  1  0  0  0  0
 16 17  2  0  0  0  0
 17 18  1  0  0  0  0
 17 20  1  0  0  0  0
 18 19  1  0  0  0  0
 19 70  1  0  0  0  0
 20 21  2  0  0  0  0
 20 22  1  0  0  0  0
 22 27  2  0  0  0  0
 22 23  1  0  0  0  0
 23 24  2  0  0  0  0
 23 71  1  0  0  0  0
 24 25  1  0  0  0  0
 24 72  1  0  0  0  0
 25 26  2  0  0  0  0
 25 73  1  0  0  0  0
 26 27  1  0  0  0  0
 26 30  1  0  0  0  0
 27 28  1  0  0  0  0
 28 29  2  0  0  0  0
 30 31  1  0  0  0  0
 31 74  1  0  0  0  0
 31 75  1  0  0  0  0
 31 76  1  0  0  0  0
 32 77  1  0  0  0  0
 33 34  1  6  0  0  0
 33 35  1  0  0  0  0
 33 36  1  0  0  0  0
 35 78  1  0  0  0  0
 35 79  1  0  0  0  0
 36 37  1  0  0  0  0
 37 38  1  6  0  0  0
 37 46  1  0  0  0  0
 37 39  1  0  0  0  0
 39 40  1  0  0  0  0
 39 80  1  0  0  0  0
 39 81  1  0  0  0  0
 40 41  1  6  0  0  0
 40 42  1  0  0  0  0
 40 49  1  0  0  0  0
 42 43  1  6  0  0  0
 42 44  1  0  0  0  0
 42 48  1  0  0  0  0
 44 45  1  6  0  0  0
 44 46  1  0  0  0  0
 44 47  1  0  0  0  0
 47 82  1  0  0  0  0
 47 83  1  0  0  0  0
 47 84  1  0  0  0  0
 48 85  1  0  0  0  0
 49 50  1  0  0  0  0
 49 86  1  0  0  0  0
 50 51  2  0  0  0  0
 50 52  1  0  0  0  0
 52 53  1  0  0  0  0
 52 54  1  0  0  0  0
 52 55  1  0  0  0  0
 56 87  1  0  0  0  0
M  END
$$$$
