ZINC01530938
 OpenBabel08292219463D

 38 38  0  0  0  0  0  0  0  0999 V2000
   -0.2640    1.4459    0.0391 C   0  0  0  0  0  0  0  0  0  0  0  0
   -0.0334   -0.0661   -0.0010 C   0  0  0  0  0  0  0  0  0  0  0  0
    0.8227   -0.4609    1.1256 N   0  3  0  0  0  0  0  0  0  0  0  0
    0.1113   -0.2220    2.3885 C   0  0  0  0  0  0  0  0  0  0  0  0
    1.0526   -0.4946    3.5635 C   0  0  0  0  0  0  0  0  0  0  0  0
    1.1539   -1.8876    1.0125 C   0  0  0  0  0  0  0  0  0  0  0  0
    2.0022   -2.1165   -0.2401 C   0  0  0  0  0  0  0  0  0  0  0  0
    3.2566   -1.4476   -0.0947 O   0  0  0  0  0  0  0  0  0  0  0  0
    4.1271   -1.5504   -1.1184 C   0  0  0  0  0  0  0  0  0  0  0  0
    3.8291   -2.1906   -2.1074 O   0  0  0  0  0  0  0  0  0  0  0  0
    5.4397   -0.8868   -1.0385 C   0  0  0  0  0  0  0  0  0  0  0  0
    5.7868   -0.1542    0.1016 C   0  0  0  0  0  0  0  0  0  0  0  0
    7.0035    0.4611    0.1750 C   0  0  0  0  0  0  0  0  0  0  0  0
    7.9044    0.3626   -0.8827 C   0  0  0  0  0  0  0  0  0  0  0  0
    7.5694   -0.3641   -2.0213 C   0  0  0  0  0  0  0  0  0  0  0  0
    6.3454   -0.9925   -2.1008 C   0  0  0  0  0  0  0  0  0  0  0  0
    5.9255   -1.9062   -3.5159 Cl  0  0  0  0  0  0  0  0  0  0  0  0
    9.1411    0.9921   -0.8010 N   0  0  0  0  0  0  0  0  0  0  0  0
    0.6968    1.9590    0.0785 H   0  0  0  0  0  0  0  0  0  0  0  0
   -0.8045    1.7548   -0.8556 H   0  0  0  0  0  0  0  0  0  0  0  0
   -0.8486    1.7009    0.9230 H   0  0  0  0  0  0  0  0  0  0  0  0
   -0.9909   -0.5818    0.0722 H   0  0  0  0  0  0  0  0  0  0  0  0
    0.4532   -0.3347   -0.9386 H   0  0  0  0  0  0  0  0  0  0  0  0
   -0.2254    0.8140    2.4254 H   0  0  0  0  0  0  0  0  0  0  0  0
   -0.7503   -0.8866    2.4514 H   0  0  0  0  0  0  0  0  0  0  0  0
    1.3017   -1.5554    3.5909 H   0  0  0  0  0  0  0  0  0  0  0  0
    1.9645    0.0898    3.4417 H   0  0  0  0  0  0  0  0  0  0  0  0
    0.5619   -0.2124    4.4950 H   0  0  0  0  0  0  0  0  0  0  0  0
    1.7144   -2.2015    1.8931 H   0  0  0  0  0  0  0  0  0  0  0  0
    0.2350   -2.4693    0.9403 H   0  0  0  0  0  0  0  0  0  0  0  0
    2.1733   -3.1847   -0.3728 H   0  0  0  0  0  0  0  0  0  0  0  0
    1.4785   -1.7215   -1.1107 H   0  0  0  0  0  0  0  0  0  0  0  0
    5.0917   -0.0749    0.9243 H   0  0  0  0  0  0  0  0  0  0  0  0
    7.2682    1.0266    1.0562 H   0  0  0  0  0  0  0  0  0  0  0  0
    8.2697   -0.4391   -2.8401 H   0  0  0  0  0  0  0  0  0  0  0  0
    9.3757    1.4992   -0.0081 H   0  0  0  0  0  0  0  0  0  0  0  0
    9.7694    0.9243   -1.5369 H   0  0  0  0  0  0  0  0  0  0  0  0
    1.6719    0.0838    1.1097 H   0  0  0  0  0  0  0  0  0  0  0  0
  1  2  1  0  0  0  0
  1 19  1  0  0  0  0
  1 20  1  0  0  0  0
  1 21  1  0  0  0  0
  2  3  1  0  0  0  0
  2 22  1  0  0  0  0
  2 23  1  0  0  0  0
  3  4  1  0  0  0  0
  3  6  1  0  0  0  0
  3 38  1  0  0  0  0
  4  5  1  0  0  0  0
  4 24  1  0  0  0  0
  4 25  1  0  0  0  0
  5 26  1  0  0  0  0
  5 27  1  0  0  0  0
  5 28  1  0  0  0  0
  6  7  1  0  0  0  0
  6 29  1  0  0  0  0
  6 30  1  0  0  0  0
  7  8  1  0  0  0  0
  7 31  1  0  0  0  0
  7 32  1  0  0  0  0
  8  9  1  0  0  0  0
  9 10  2  0  0  0  0
  9 11  1  0  0  0  0
 11 16  2  0  0  0  0
 11 12  1  0  0  0  0
 12 13  2  0  0  0  0
 12 33  1  0  0  0  0
 13 14  1  0  0  0  0
 13 34  1  0  0  0  0
 14 15  2  0  0  0  0
 14 18  1  0  0  0  0
 15 16  1  0  0  0  0
 15 35  1  0  0  0  0
 16 17  1  0  0  0  0
 18 36  1  0  0  0  0
 18 37  1  0  0  0  0
M  CHG  1   3   1
M  END
$$$$
