ZINC04097440
 OpenBabel08292219463D

 56 59  0  0  1  0  0  0  0  0999 V2000
    4.5990    2.7622   -0.2121 C   0  0  0  0  0  0  0  0  0  0  0  0
    3.4537    2.8098   -1.2255 C   0  0  2  0  0  0  0  0  0  0  0  0
    3.5337    3.7078   -1.8381 H   0  0  0  0  0  0  0  0  0  0  0  0
    2.0868    2.7871   -0.4886 C   0  0  0  0  0  0  0  0  0  0  0  0
    1.7137    1.2992   -0.4848 C   0  0  1  0  0  0  0  0  0  0  0  0
    2.2813    0.7409    0.2597 H   0  0  0  0  0  0  0  0  0  0  0  0
    0.2327    0.9921   -0.3579 C   0  0  2  0  0  0  0  0  0  0  0  0
   -0.3158    1.4883   -1.1586 H   0  0  0  0  0  0  0  0  0  0  0  0
   -0.2789    1.4552    1.0076 C   0  0  0  0  0  0  0  0  0  0  0  0
   -1.7828    1.1830    1.1124 C   0  0  0  0  0  0  0  0  0  0  0  0
   -2.0165   -0.2902    0.8347 C   0  0  0  0  0  0  0  0  0  0  0  0
   -2.7193   -1.0024    1.7048 C   0  0  0  0  0  0  0  0  0  0  0  0
   -2.9393   -2.4408    1.4894 C   0  0  0  0  0  0  0  0  0  0  0  0
   -3.6131   -3.0905    2.2670 O   0  0  0  0  0  0  0  0  0  0  0  0
   -2.3252   -3.0769    0.3116 C   0  0  0  0  0  0  0  0  0  0  0  0
   -1.6321   -2.3452   -0.5464 C   0  0  0  0  0  0  0  0  0  0  0  0
   -1.4252   -0.8752   -0.4135 C   0  0  2  0  0  0  0  0  0  0  0  0
    0.0657   -0.5308   -0.4811 C   0  0  1  0  0  0  0  0  0  0  0  0
    0.6253   -1.0530   -1.8011 C   0  0  2  0  0  0  0  0  0  0  0  0
    0.5726   -2.1417   -1.8036 H   0  0  0  0  0  0  0  0  0  0  0  0
    2.0859   -0.6231   -2.0094 C   0  0  0  0  0  0  0  0  0  0  0  0
    2.1209    0.8920   -1.9483 C   0  0  2  0  0  0  0  0  0  0  0  0
    3.4863    1.5485   -2.1242 C   0  0  1  0  0  0  0  0  0  0  0  0
    3.6972    1.9369   -3.5649 C   0  0  0  0  0  0  0  0  0  0  0  0
    3.4039    3.0466   -3.9402 O   0  0  0  0  0  0  0  0  0  0  0  0
    4.2739    0.9405   -4.5373 C   0  0  0  0  0  0  0  0  0  0  0  0
    4.4029    1.6980   -6.1684 Cl  0  0  0  0  0  0  0  0  0  0  0  0
    4.5211    0.6614   -1.6949 O   0  0  0  0  0  0  0  0  0  0  0  0
    1.1313    1.4746   -2.9593 C   0  0  0  0  0  0  0  0  0  0  0  0
   -0.1676   -0.5460   -2.8764 O   0  0  0  0  0  0  0  0  0  0  0  0
    0.9229   -1.3345    0.8864 Cl  0  0  0  0  0  0  0  0  0  0  0  0
   -2.1143   -0.1962   -1.5988 C   0  0  0  0  0  0  0  0  0  0  0  0
    5.5511    2.7244   -0.7413 H   0  0  0  0  0  0  0  0  0  0  0  0
    4.5668    3.6535    0.4146 H   0  0  0  0  0  0  0  0  0  0  0  0
    4.4949    1.8750    0.4125 H   0  0  0  0  0  0  0  0  0  0  0  0
    2.1949    3.1442    0.5356 H   0  0  0  0  0  0  0  0  0  0  0  0
    1.3486    3.3815   -1.0269 H   0  0  0  0  0  0  0  0  0  0  0  0
    0.2440    0.9117    1.7945 H   0  0  0  0  0  0  0  0  0  0  0  0
   -0.0947    2.5236    1.1209 H   0  0  0  0  0  0  0  0  0  0  0  0
   -2.3178    1.7852    0.3781 H   0  0  0  0  0  0  0  0  0  0  0  0
   -2.1322    1.4283    2.1153 H   0  0  0  0  0  0  0  0  0  0  0  0
   -3.1331   -0.5225    2.5793 H   0  0  0  0  0  0  0  0  0  0  0  0
   -2.4406   -4.1382    0.1481 H   0  0  0  0  0  0  0  0  0  0  0  0
   -1.1886   -2.8444   -1.3953 H   0  0  0  0  0  0  0  0  0  0  0  0
    2.7118   -1.0409   -1.2208 H   0  0  0  0  0  0  0  0  0  0  0  0
    2.4377   -0.9634   -2.9833 H   0  0  0  0  0  0  0  0  0  0  0  0
    5.1823    0.6597   -4.2274 H   0  0  0  0  0  0  0  0  0  0  0  0
    3.6230    0.0679   -4.5924 H   0  0  0  0  0  0  0  0  0  0  0  0
    5.4128    1.0250   -1.7834 H   0  0  0  0  0  0  0  0  0  0  0  0
    0.1126    1.2696   -2.6301 H   0  0  0  0  0  0  0  0  0  0  0  0
    1.2793    2.5519   -3.0332 H   0  0  0  0  0  0  0  0  0  0  0  0
    1.2969    1.0173   -3.9348 H   0  0  0  0  0  0  0  0  0  0  0  0
    0.1259   -0.8343   -3.7515 H   0  0  0  0  0  0  0  0  0  0  0  0
   -1.9679   -0.7964   -2.4968 H   0  0  0  0  0  0  0  0  0  0  0  0
   -3.1809   -0.1027   -1.3941 H   0  0  0  0  0  0  0  0  0  0  0  0
   -1.6852    0.7944   -1.7499 H   0  0  0  0  0  0  0  0  0  0  0  0
  1  2  1  0  0  0  0
  1 33  1  0  0  0  0
  1 34  1  0  0  0  0
  1 35  1  0  0  0  0
  2  3  1  6  0  0  0
  2 23  1  0  0  0  0
  2  4  1  0  0  0  0
  4  5  1  0  0  0  0
  4 36  1  0  0  0  0
  4 37  1  0  0  0  0
  5  6  1  1  0  0  0
  5 22  1  0  0  0  0
  5  7  1  0  0  0  0
  7  8  1  6  0  0  0
  7 18  1  0  0  0  0
  7  9  1  0  0  0  0
  9 10  1  0  0  0  0
  9 38  1  0  0  0  0
  9 39  1  0  0  0  0
 10 11  1  0  0  0  0
 10 40  1  0  0  0  0
 10 41  1  0  0  0  0
 11 17  1  0  0  0  0
 11 12  2  0  0  0  0
 12 13  1  0  0  0  0
 12 42  1  0  0  0  0
 13 14  2  0  0  0  0
 13 15  1  0  0  0  0
 15 16  2  0  0  0  0
 15 43  1  0  0  0  0
 16 17  1  0  0  0  0
 16 44  1  0  0  0  0
 17 18  1  0  0  0  0
 17 32  1  6  0  0  0
 18 19  1  0  0  0  0
 18 31  1  1  0  0  0
 19 20  1  6  0  0  0
 19 21  1  0  0  0  0
 19 30  1  0  0  0  0
 21 22  1  0  0  0  0
 21 45  1  0  0  0  0
 21 46  1  0  0  0  0
 22 23  1  0  0  0  0
 22 29  1  6  0  0  0
 23 24  1  6  0  0  0
 23 28  1  0  0  0  0
 24 25  2  0  0  0  0
 24 26  1  0  0  0  0
 26 27  1  0  0  0  0
 26 47  1  0  0  0  0
 26 48  1  0  0  0  0
 28 49  1  0  0  0  0
 29 50  1  0  0  0  0
 29 51  1  0  0  0  0
 29 52  1  0  0  0  0
 30 53  1  0  0  0  0
 32 54  1  0  0  0  0
 32 55  1  0  0  0  0
 32 56  1  0  0  0  0
M  END
$$$$
