ZINC96006019
 OpenBabel08292219463D

138141  0  0  1  0  0  0  0  0999 V2000
    5.4643    4.4578   -1.6710 C   0  0  0  0  0  0  0  0  0  0  0  0
    4.3062    3.8671   -0.8643 C   0  0  0  0  0  0  0  0  0  0  0  0
    3.5631    2.8251   -1.7206 C   0  0  2  0  0  0  0  0  0  0  0  0
    3.3196    3.2881   -2.6745 H   0  0  0  0  0  0  0  0  0  0  0  0
    2.2902    2.4408   -0.9803 C   0  0  1  0  0  0  0  0  0  0  0  0
    1.3533    1.5163   -1.7133 C   0  0  2  0  0  0  0  0  0  0  0  0
    0.8548    0.8834   -0.9471 H   0  0  0  0  0  0  0  0  0  0  0  0
    2.0195    0.5385   -2.6984 C   0  0  1  0  0  0  0  0  0  0  0  0
    2.9013    0.1478   -2.2511 H   0  0  0  0  0  0  0  0  0  0  0  0
    0.9387   -0.5117   -2.9282 C   0  0  2  0  0  0  0  0  0  0  0  0
    0.5582   -0.7805   -1.9134 H   0  0  0  0  0  0  0  0  0  0  0  0
    1.3273   -1.8104   -3.5950 C   0  0  1  0  0  0  0  0  0  0  0  0
    0.3898   -2.0670   -4.2036 H   0  0  0  0  0  0  0  0  0  0  0  0
    2.4155   -1.8033   -4.6173 C   0  0  0  0  0  0  0  0  0  0  0  0
    3.8581   -2.1103   -4.2191 C   0  0  1  0  0  0  0  0  0  0  0  0
    4.7406   -1.2943   -5.1647 C   0  0  1  0  0  0  0  0  0  0  0  0
    4.2323   -0.3211   -5.2969 H   0  0  0  0  0  0  0  0  0  0  0  0
    6.1872   -1.0690   -4.8346 C   0  0  1  0  0  0  0  0  0  0  0  0
    6.7177   -1.1886   -5.8381 H   0  0  0  0  0  0  0  0  0  0  0  0
    6.5087    0.3665   -4.4533 C   0  0  2  0  0  0  0  0  0  0  0  0
    7.5494    0.5764   -4.7688 H   0  0  0  0  0  0  0  0  0  0  0  0
    6.4139    0.6792   -2.9686 C   0  0  2  0  0  0  0  0  0  0  0  0
    6.0891   -0.1695   -2.3835 H   0  0  0  0  0  0  0  0  0  0  0  0
    5.4664    1.8359   -2.7396 C   0  0  0  0  0  0  0  0  0  0  0  0
    5.6655    2.8867   -3.3036 O   0  0  0  0  0  0  0  0  0  0  0  0
    4.4199    1.7017   -1.9105 O   0  0  0  0  0  0  0  0  0  0  0  0
    7.8020    1.1069   -2.4638 C   0  0  0  0  0  0  0  0  0  0  0  0
    5.6684    1.2556   -5.1977 O   0  0  0  0  0  0  0  0  0  0  0  0
    6.3512    1.9718   -6.2343 C   0  0  1  0  0  0  0  0  0  0  0  0
    6.9461    1.2693   -6.8114 H   0  0  0  0  0  0  0  0  0  0  0  0
    5.3173    2.6568   -7.1302 C   0  0  0  0  0  0  0  0  0  0  0  0
    6.0252    3.4536   -8.2245 C   0  0  1  0  0  0  0  0  0  0  0  0
    7.0631    4.4011   -7.6375 C   0  0  2  0  0  0  0  0  0  0  0  0
    7.7290    4.7340   -8.4505 H   0  0  0  0  0  0  0  0  0  0  0  0
    7.9123    3.7955   -6.5333 C   0  0  1  0  0  0  0  0  0  0  0  0
    8.3198    4.6365   -5.9318 H   0  0  0  0  0  0  0  0  0  0  0  0
    7.1801    2.9684   -5.6459 O   0  0  0  0  0  0  0  0  0  0  0  0
    9.1158    3.0461   -7.1070 C   0  0  0  0  0  0  0  0  0  0  0  0
    6.3962    5.5686   -7.1315 O   0  0  0  0  0  0  0  0  0  0  0  0
    6.6567    2.5078   -9.2468 C   0  0  0  0  0  0  0  0  0  0  0  0
    5.0329    4.2434   -8.9108 O   0  0  0  0  0  0  0  0  0  0  0  0
    4.0442    3.4695   -9.5931 C   0  0  0  0  0  0  0  0  0  0  0  0
    6.8791   -2.1008   -3.9662 C   0  0  0  0  0  0  0  0  0  0  0  0
    4.6640   -1.9266   -6.4650 O   0  0  0  0  0  0  0  0  0  0  0  0
    4.2360   -1.0531   -7.5118 C   0  0  1  0  0  0  0  0  0  0  0  0
    4.8350   -0.1426   -7.4931 H   0  0  0  0  0  0  0  0  0  0  0  0
    4.4105   -1.7514   -8.8629 C   0  0  1  0  0  0  0  0  0  0  0  0
    3.8441   -2.6827   -8.8675 H   0  0  0  0  0  0  0  0  0  0  0  0
    3.8940   -0.8326   -9.9743 C   0  0  2  0  0  0  0  0  0  0  0  0
    4.4925    0.0780  -10.0022 H   0  0  0  0  0  0  0  0  0  0  0  0
    2.4319   -0.4762   -9.6888 C   0  0  0  0  0  0  0  0  0  0  0  0
    2.3337    0.1729   -8.3057 C   0  0  2  0  0  0  0  0  0  0  0  0
    2.9077    1.0995   -8.2975 H   0  0  0  0  0  0  0  0  0  0  0  0
    2.8589   -0.7215   -7.3226 O   0  0  0  0  0  0  0  0  0  0  0  0
    0.8684    0.4775   -7.9879 C   0  0  0  0  0  0  0  0  0  0  0  0
    3.9897   -1.5234  -11.2673 N   0  3  0  0  0  0  0  0  0  0  0  0
    3.0869   -2.6822  -11.2714 C   0  0  0  0  0  0  0  0  0  0  0  0
    3.6075   -0.6010  -12.3448 C   0  0  0  0  0  0  0  0  0  0  0  0
    5.7946   -2.0333   -9.0795 O   0  0  0  0  0  0  0  0  0  0  0  0
    4.1480   -1.8224   -2.7597 C   0  0  0  0  0  0  0  0  0  0  0  0
    4.0953   -3.5051   -4.4797 O   0  0  0  0  0  0  0  0  0  0  0  0
    1.3718   -2.9681   -2.6001 C   0  0  0  0  0  0  0  0  0  0  0  0
   -0.1963    0.1145   -3.6252 N   0  3  0  0  0  0  0  0  0  0  0  0
   -0.6763    1.3411   -2.9948 C   0  0  2  0  0  0  0  0  0  0  0  0
   -1.1921    1.9298   -3.7799 H   0  0  0  0  0  0  0  0  0  0  0  0
    0.3292    2.1846   -2.4449 O   0  0  0  0  0  0  0  0  0  0  0  0
   -1.7169    1.0042   -1.9219 C   0  0  0  0  0  0  0  0  0  0  0  0
   -1.1230    0.1656   -0.9289 O   0  0  0  0  0  0  0  0  0  0  0  0
   -2.0137   -0.2091    0.1238 C   0  0  0  0  0  0  0  0  0  0  0  0
   -1.2750   -1.1011    1.1236 C   0  0  0  0  0  0  0  0  0  0  0  0
   -0.2370   -0.3496    1.7561 O   0  0  0  0  0  0  0  0  0  0  0  0
    0.5184   -1.0939    2.7139 C   0  0  0  0  0  0  0  0  0  0  0  0
    2.3036    1.2962   -4.0004 C   0  0  0  0  0  0  0  0  0  0  0  0
    2.6905    1.7902    0.3605 C   0  0  0  0  0  0  0  0  0  0  0  0
    1.5801    3.6567   -0.6651 O   0  0  0  0  0  0  0  0  0  0  0  0
    6.2546    3.7138   -1.7703 H   0  0  0  0  0  0  0  0  0  0  0  0
    5.1087    4.7444   -2.6607 H   0  0  0  0  0  0  0  0  0  0  0  0
    5.8545    5.3361   -1.1568 H   0  0  0  0  0  0  0  0  0  0  0  0
    4.6961    3.3880    0.0338 H   0  0  0  0  0  0  0  0  0  0  0  0
    3.6172    4.6630   -0.5815 H   0  0  0  0  0  0  0  0  0  0  0  0
    2.1471   -2.5747   -5.3853 H   0  0  0  0  0  0  0  0  0  0  0  0
    2.4032   -0.8766   -5.2082 H   0  0  0  0  0  0  0  0  0  0  0  0
    8.1295    1.9927   -3.0080 H   0  0  0  0  0  0  0  0  0  0  0  0
    7.7473    1.3342   -1.3992 H   0  0  0  0  0  0  0  0  0  0  0  0
    8.5132    0.2970   -2.6264 H   0  0  0  0  0  0  0  0  0  0  0  0
    4.6762    1.8996   -7.5864 H   0  0  0  0  0  0  0  0  0  0  0  0
    4.7025    3.3275   -6.5275 H   0  0  0  0  0  0  0  0  0  0  0  0
    9.7338    3.7365   -7.6811 H   0  0  0  0  0  0  0  0  0  0  0  0
    9.7036    2.6244   -6.2916 H   0  0  0  0  0  0  0  0  0  0  0  0
    8.7678    2.2434   -7.7570 H   0  0  0  0  0  0  0  0  0  0  0  0
    6.9911    6.2227   -6.7398 H   0  0  0  0  0  0  0  0  0  0  0  0
    5.8732    1.9406   -9.7495 H   0  0  0  0  0  0  0  0  0  0  0  0
    7.2143    3.0877   -9.9824 H   0  0  0  0  0  0  0  0  0  0  0  0
    7.3326    1.8210   -8.7374 H   0  0  0  0  0  0  0  0  0  0  0  0
    3.2806    4.1325   -9.9997 H   0  0  0  0  0  0  0  0  0  0  0  0
    4.5138    2.9148  -10.4055 H   0  0  0  0  0  0  0  0  0  0  0  0
    3.5840    2.7707   -8.8945 H   0  0  0  0  0  0  0  0  0  0  0  0
    6.7110   -3.0952   -4.3796 H   0  0  0  0  0  0  0  0  0  0  0  0
    7.9491   -1.8945   -3.9395 H   0  0  0  0  0  0  0  0  0  0  0  0
    6.4748   -2.0546   -2.9550 H   0  0  0  0  0  0  0  0  0  0  0  0
    2.0726    0.2217  -10.4450 H   0  0  0  0  0  0  0  0  0  0  0  0
    1.8254   -1.3817   -9.7100 H   0  0  0  0  0  0  0  0  0  0  0  0
    0.2782   -0.4335   -8.0867 H   0  0  0  0  0  0  0  0  0  0  0  0
    0.7885    0.8534   -6.9679 H   0  0  0  0  0  0  0  0  0  0  0  0
    0.4947    1.2297   -8.6826 H   0  0  0  0  0  0  0  0  0  0  0  0
    2.0623   -2.3450  -11.1146 H   0  0  0  0  0  0  0  0  0  0  0  0
    3.1580   -3.1947  -12.2307 H   0  0  0  0  0  0  0  0  0  0  0  0
    3.3706   -3.3666  -10.4718 H   0  0  0  0  0  0  0  0  0  0  0  0
    3.7822   -1.0770  -13.3096 H   0  0  0  0  0  0  0  0  0  0  0  0
    2.5512   -0.3491  -12.2498 H   0  0  0  0  0  0  0  0  0  0  0  0
    4.2054    0.3077  -12.2744 H   0  0  0  0  0  0  0  0  0  0  0  0
    6.1886   -2.6079   -8.4088 H   0  0  0  0  0  0  0  0  0  0  0  0
    3.2944   -2.1248   -2.1532 H   0  0  0  0  0  0  0  0  0  0  0  0
    5.0311   -2.3800   -2.4478 H   0  0  0  0  0  0  0  0  0  0  0  0
    4.3271   -0.7552   -2.6285 H   0  0  0  0  0  0  0  0  0  0  0  0
    3.5135   -4.1014   -3.9888 H   0  0  0  0  0  0  0  0  0  0  0  0
    0.3554   -3.2812   -2.3613 H   0  0  0  0  0  0  0  0  0  0  0  0
    1.9157   -3.8042   -3.0397 H   0  0  0  0  0  0  0  0  0  0  0  0
    1.8760   -2.6452   -1.6893 H   0  0  0  0  0  0  0  0  0  0  0  0
    0.0285    0.2736   -4.5945 H   0  0  0  0  0  0  0  0  0  0  0  0
   -2.0699    1.9245   -1.4565 H   0  0  0  0  0  0  0  0  0  0  0  0
   -2.5573    0.4840   -2.3815 H   0  0  0  0  0  0  0  0  0  0  0  0
   -2.3728    0.6860    0.6317 H   0  0  0  0  0  0  0  0  0  0  0  0
   -2.8602   -0.7545   -0.2934 H   0  0  0  0  0  0  0  0  0  0  0  0
   -1.9756   -1.4591    1.8779 H   0  0  0  0  0  0  0  0  0  0  0  0
   -0.8397   -1.9517    0.5991 H   0  0  0  0  0  0  0  0  0  0  0  0
   -0.1450   -1.4518    3.5012 H   0  0  0  0  0  0  0  0  0  0  0  0
    0.9909   -1.9444    2.2224 H   0  0  0  0  0  0  0  0  0  0  0  0
    1.2857   -0.4533    3.1486 H   0  0  0  0  0  0  0  0  0  0  0  0
    2.9881    2.1203   -3.7992 H   0  0  0  0  0  0  0  0  0  0  0  0
    2.7547    0.6178   -4.7246 H   0  0  0  0  0  0  0  0  0  0  0  0
    1.3701    1.6893   -4.4031 H   0  0  0  0  0  0  0  0  0  0  0  0
    3.2676    2.5015    0.9515 H   0  0  0  0  0  0  0  0  0  0  0  0
    1.7925    1.5063    0.9091 H   0  0  0  0  0  0  0  0  0  0  0  0
    3.2944    0.9034    0.1681 H   0  0  0  0  0  0  0  0  0  0  0  0
    2.0785    4.2700   -0.1078 H   0  0  0  0  0  0  0  0  0  0  0  0
    4.9382   -1.8354  -11.4124 H   0  0  0  0  0  0  0  0  0  0  0  0
   -0.9628   -0.5641   -3.6210 H   0  0  0  0  0  0  0  0  0  0  0  0
  1  2  1  0  0  0  0
  1 76  1  0  0  0  0
  1 77  1  0  0  0  0
  1 78  1  0  0  0  0
  2  3  1  0  0  0  0
  2 79  1  0  0  0  0
  2 80  1  0  0  0  0
  3  4  1  6  0  0  0
  3 26  1  0  0  0  0
  3  5  1  0  0  0  0
  5  6  1  0  0  0  0
  5 74  1  0  0  0  0
  5 75  1  1  0  0  0
  6  7  1  1  0  0  0
  6 66  1  0  0  0  0
  6  8  1  0  0  0  0
  8  9  1  1  0  0  0
  8 10  1  0  0  0  0
  8 73  1  0  0  0  0
 10 11  1  1  0  0  0
 10 12  1  0  0  0  0
 10 63  1  0  0  0  0
 12 13  1  6  0  0  0
 12 14  1  0  0  0  0
 12 62  1  0  0  0  0
 14 15  1  0  0  0  0
 14 81  1  0  0  0  0
 14 82  1  0  0  0  0
 15 16  1  0  0  0  0
 15 60  1  0  0  0  0
 15 61  1  6  0  0  0
 16 17  1  6  0  0  0
 16 18  1  0  0  0  0
 16 44  1  0  0  0  0
 18 19  1  6  0  0  0
 18 20  1  0  0  0  0
 18 43  1  0  0  0  0
 20 21  1  6  0  0  0
 20 22  1  0  0  0  0
 20 28  1  0  0  0  0
 22 23  1  1  0  0  0
 22 24  1  0  0  0  0
 22 27  1  0  0  0  0
 24 25  2  0  0  0  0
 24 26  1  0  0  0  0
 27 83  1  0  0  0  0
 27 84  1  0  0  0  0
 27 85  1  0  0  0  0
 28 29  1  0  0  0  0
 29 30  1  6  0  0  0
 29 37  1  0  0  0  0
 29 31  1  0  0  0  0
 31 32  1  0  0  0  0
 31 86  1  0  0  0  0
 31 87  1  0  0  0  0
 32 33  1  0  0  0  0
 32 40  1  0  0  0  0
 32 41  1  6  0  0  0
 33 34  1  6  0  0  0
 33 35  1  0  0  0  0
 33 39  1  0  0  0  0
 35 36  1  1  0  0  0
 35 37  1  0  0  0  0
 35 38  1  0  0  0  0
 38 88  1  0  0  0  0
 38 89  1  0  0  0  0
 38 90  1  0  0  0  0
 39 91  1  0  0  0  0
 40 92  1  0  0  0  0
 40 93  1  0  0  0  0
 40 94  1  0  0  0  0
 41 42  1  0  0  0  0
 42 95  1  0  0  0  0
 42 96  1  0  0  0  0
 42 97  1  0  0  0  0
 43 98  1  0  0  0  0
 43 99  1  0  0  0  0
 43100  1  0  0  0  0
 44 45  1  0  0  0  0
 45 46  1  1  0  0  0
 45 54  1  0  0  0  0
 45 47  1  0  0  0  0
 47 48  1  6  0  0  0
 47 49  1  0  0  0  0
 47 59  1  0  0  0  0
 49 50  1  6  0  0  0
 49 51  1  0  0  0  0
 49 56  1  0  0  0  0
 51 52  1  0  0  0  0
 51101  1  0  0  0  0
 51102  1  0  0  0  0
 52 53  1  1  0  0  0
 52 54  1  0  0  0  0
 52 55  1  0  0  0  0
 55103  1  0  0  0  0
 55104  1  0  0  0  0
 55105  1  0  0  0  0
 56 57  1  0  0  0  0
 56 58  1  0  0  0  0
 56137  1  0  0  0  0
 57106  1  0  0  0  0
 57107  1  0  0  0  0
 57108  1  0  0  0  0
 58109  1  0  0  0  0
 58110  1  0  0  0  0
 58111  1  0  0  0  0
 59112  1  0  0  0  0
 60113  1  0  0  0  0
 60114  1  0  0  0  0
 60115  1  0  0  0  0
 61116  1  0  0  0  0
 62117  1  0  0  0  0
 62118  1  0  0  0  0
 62119  1  0  0  0  0
 63 64  1  0  0  0  0
 63120  1  0  0  0  0
 63138  1  0  0  0  0
 64 65  1  6  0  0  0
 64 66  1  0  0  0  0
 64 67  1  0  0  0  0
 67 68  1  0  0  0  0
 67121  1  0  0  0  0
 67122  1  0  0  0  0
 68 69  1  0  0  0  0
 69 70  1  0  0  0  0
 69123  1  0  0  0  0
 69124  1  0  0  0  0
 70 71  1  0  0  0  0
 70125  1  0  0  0  0
 70126  1  0  0  0  0
 71 72  1  0  0  0  0
 72127  1  0  0  0  0
 72128  1  0  0  0  0
 72129  1  0  0  0  0
 73130  1  0  0  0  0
 73131  1  0  0  0  0
 73132  1  0  0  0  0
 74133  1  0  0  0  0
 74134  1  0  0  0  0
 74135  1  0  0  0  0
 75136  1  0  0  0  0
M  CHG  2  56   1  63   1
M  END
$$$$
