ZINC03876069
 OpenBabel08292219463D

 37 37  0  0  1  0  0  0  0  0999 V2000
   -0.0127    1.0858    0.0080 C   0  0  0  0  0  0  0  0  0  0  0  0
   -0.7288    1.5792    1.2668 C   0  0  0  0  0  0  0  0  0  0  0  0
   -2.1098    1.0697    1.2773 C   0  0  0  0  0  0  0  0  0  0  0  0
   -3.2112    0.6634    1.2856 C   0  0  0  0  0  0  0  0  0  0  0  0
   -4.5922    0.1539    1.2960 C   0  0  1  0  0  0  0  0  0  0  0  0
   -5.0738    0.5276    2.2116 H   0  0  0  0  0  0  0  0  0  0  0  0
   -5.3322    0.6607    0.0565 C   0  0  0  0  0  0  0  0  0  0  0  0
   -4.5714   -1.3760    1.2876 C   0  0  1  0  0  0  0  0  0  0  0  0
   -6.0065   -1.8676    1.2987 C   0  0  0  0  0  0  0  0  0  0  0  0
   -6.7695   -1.5602    2.1893 O   0  0  0  0  0  0  0  0  0  0  0  0
   -6.4024   -2.6603    0.2803 N   0  0  0  0  0  0  0  0  0  0  0  0
   -5.5726   -3.0093   -0.7095 C   0  0  0  0  0  0  0  0  0  0  0  0
   -6.0120   -3.7265   -1.5862 O   0  0  0  0  0  0  0  0  0  0  0  0
   -4.2943   -2.6258   -0.8047 N   0  0  0  0  0  0  0  0  0  0  0  0
   -3.7162   -1.8300    0.1199 C   0  0  0  0  0  0  0  0  0  0  0  0
   -2.5566   -1.4905    0.0204 O   0  0  0  0  0  0  0  0  0  0  0  0
   -3.4984   -3.0832   -1.9464 C   0  0  0  0  0  0  0  0  0  0  0  0
   -3.8970   -1.8468    2.5777 C   0  0  0  0  0  0  0  0  0  0  0  0
   -3.8588   -3.3530    2.6038 C   0  0  0  0  0  0  0  0  0  0  0  0
   -2.7182   -3.9766    2.7665 C   0  0  0  0  0  0  0  0  0  0  0  0
    1.0193    1.4666    0.0002 H   0  0  0  0  0  0  0  0  0  0  0  0
   -0.5448    1.4502   -0.8831 H   0  0  0  0  0  0  0  0  0  0  0  0
    0.0022   -0.0141    0.0020 H   0  0  0  0  0  0  0  0  0  0  0  0
   -0.1967    1.2148    2.1579 H   0  0  0  0  0  0  0  0  0  0  0  0
   -0.7437    2.6791    1.2729 H   0  0  0  0  0  0  0  0  0  0  0  0
   -6.3642    0.2799    0.0643 H   0  0  0  0  0  0  0  0  0  0  0  0
   -4.8173    0.3059   -0.8485 H   0  0  0  0  0  0  0  0  0  0  0  0
   -5.3471    1.7606    0.0626 H   0  0  0  0  0  0  0  0  0  0  0  0
   -7.4345   -3.0395    0.2476 H   0  0  0  0  0  0  0  0  0  0  0  0
   -2.4787   -2.6782   -1.8683 H   0  0  0  0  0  0  0  0  0  0  0  0
   -3.9617   -2.7324   -2.8804 H   0  0  0  0  0  0  0  0  0  0  0  0
   -3.4572   -4.1824   -1.9478 H   0  0  0  0  0  0  0  0  0  0  0  0
   -2.8707   -1.4532    2.6196 H   0  0  0  0  0  0  0  0  0  0  0  0
   -4.4663   -1.4794    3.4442 H   0  0  0  0  0  0  0  0  0  0  0  0
   -4.7886   -3.9289    2.4862 H   0  0  0  0  0  0  0  0  0  0  0  0
   -2.6903   -5.0761    2.7856 H   0  0  0  0  0  0  0  0  0  0  0  0
   -1.7884   -3.4007    2.8841 H   0  0  0  0  0  0  0  0  0  0  0  0
  1  2  1  0  0  0  0
  1 21  1  0  0  0  0
  1 22  1  0  0  0  0
  1 23  1  0  0  0  0
  2  3  1  0  0  0  0
  2 24  1  0  0  0  0
  2 25  1  0  0  0  0
  3  4  3  0  0  0  0
  4  5  1  0  0  0  0
  5  6  1  1  0  0  0
  5  7  1  0  0  0  0
  5  8  1  0  0  0  0
  7 26  1  0  0  0  0
  7 27  1  0  0  0  0
  7 28  1  0  0  0  0
  8 15  1  0  0  0  0
  8  9  1  0  0  0  0
  8 18  1  1  0  0  0
  9 10  2  0  0  0  0
  9 11  1  0  0  0  0
 11 12  1  0  0  0  0
 11 29  1  0  0  0  0
 12 13  2  0  0  0  0
 12 14  1  0  0  0  0
 14 15  1  0  0  0  0
 14 17  1  0  0  0  0
 15 16  2  0  0  0  0
 17 30  1  0  0  0  0
 17 31  1  0  0  0  0
 17 32  1  0  0  0  0
 18 19  1  0  0  0  0
 18 33  1  0  0  0  0
 18 34  1  0  0  0  0
 19 20  2  0  0  0  0
 19 35  1  0  0  0  0
 20 36  1  0  0  0  0
 20 37  1  0  0  0  0
M  END
$$$$
