ZINC03780893
 OpenBabel08292219463D

 68 70  0  0  1  0  0  0  0  0999 V2000
    0.3974   -1.4467    1.3474 C   0  0  0  0  0  0  0  0  0  0  0  0
    1.0352   -2.6689    0.6837 C   0  0  0  0  0  0  0  0  0  0  0  0
    1.4028   -2.3302   -0.7623 C   0  0  0  0  0  0  0  0  0  0  0  0
    0.1401   -1.9338   -1.5300 C   0  0  0  0  0  0  0  0  0  0  0  0
    2.3952   -1.1659   -0.7769 C   0  0  0  0  0  0  0  0  0  0  0  0
    2.0310   -3.5340   -1.4160 C   0  0  0  0  0  0  0  0  0  0  0  0
    2.2848   -4.5151   -0.7581 O   0  0  0  0  0  0  0  0  0  0  0  0
    2.3085   -3.5163   -2.7292 O   0  0  0  0  0  0  0  0  0  0  0  0
    2.8166   -4.7232   -3.3013 C   0  0  1  0  0  0  0  0  0  0  0  0
    3.5368   -5.1654   -2.6130 H   0  0  0  0  0  0  0  0  0  0  0  0
    1.6609   -5.7004   -3.5060 C   0  0  0  0  0  0  0  0  0  0  0  0
    2.2174   -6.9798   -4.1468 C   0  0  2  0  0  0  0  0  0  0  0  0
    2.9972   -7.4018   -3.5129 H   0  0  0  0  0  0  0  0  0  0  0  0
    2.7955   -6.6046   -5.4873 C   0  0  0  0  0  0  0  0  0  0  0  0
    3.3557   -5.4245   -5.6766 C   0  0  0  0  0  0  0  0  0  0  0  0
    3.5151   -4.3952   -4.5985 C   0  0  1  0  0  0  0  0  0  0  0  0
    4.5808   -4.3174   -4.3833 H   0  0  0  0  0  0  0  0  0  0  0  0
    3.0798   -3.0417   -5.1636 C   0  0  2  0  0  0  0  0  0  0  0  0
    2.0514   -3.1074   -5.5190 H   0  0  0  0  0  0  0  0  0  0  0  0
    4.0029   -2.6777   -6.3279 C   0  0  2  0  0  0  0  0  0  0  0  0
    3.5964   -1.8087   -6.8453 H   0  0  0  0  0  0  0  0  0  0  0  0
    4.1387   -3.8072   -7.3028 C   0  0  0  0  0  0  0  0  0  0  0  0
    3.8604   -5.0669   -7.0224 C   0  0  0  0  0  0  0  0  0  0  0  0
    5.3865   -2.3275   -5.7767 C   0  0  0  0  0  0  0  0  0  0  0  0
    3.1787   -1.9739   -4.0723 C   0  0  0  0  0  0  0  0  0  0  0  0
    3.3578   -0.5989   -4.7190 C   0  0  0  0  0  0  0  0  0  0  0  0
    3.9489    0.3728   -3.6956 C   0  0  2  0  0  0  0  0  0  0  0  0
    3.2707    0.4650   -2.8473 H   0  0  0  0  0  0  0  0  0  0  0  0
    4.1429    1.7450   -4.3464 C   0  0  0  0  0  0  0  0  0  0  0  0
    4.7732    2.7039   -3.3313 C   0  0  2  0  0  0  0  0  0  0  0  0
    4.9246    3.6786   -3.7950 H   0  0  0  0  0  0  0  0  0  0  0  0
    6.1243    2.1328   -2.8823 C   0  0  0  0  0  0  0  0  0  0  0  0
    5.9101    0.7040   -2.4329 C   0  0  0  0  0  0  0  0  0  0  0  0
    6.3486    0.3121   -1.3775 O   0  0  0  0  0  0  0  0  0  0  0  0
    5.2152   -0.1203   -3.2440 O   0  0  0  0  0  0  0  0  0  0  0  0
    3.9091    2.8404   -2.2013 O   0  0  0  0  0  0  0  0  0  0  0  0
    1.0916   -7.9991   -4.3326 C   0  0  0  0  0  0  0  0  0  0  0  0
    1.1044   -0.6172    1.3370 H   0  0  0  0  0  0  0  0  0  0  0  0
   -0.5022   -1.1643    0.8005 H   0  0  0  0  0  0  0  0  0  0  0  0
    0.1355   -1.6880    2.3776 H   0  0  0  0  0  0  0  0  0  0  0  0
    1.9347   -2.9513    1.2307 H   0  0  0  0  0  0  0  0  0  0  0  0
    0.3281   -3.4984    0.6942 H   0  0  0  0  0  0  0  0  0  0  0  0
   -0.3143   -1.0631   -1.0572 H   0  0  0  0  0  0  0  0  0  0  0  0
    0.4020   -1.6925   -2.5602 H   0  0  0  0  0  0  0  0  0  0  0  0
   -0.5669   -2.7633   -1.5196 H   0  0  0  0  0  0  0  0  0  0  0  0
    3.0916   -1.2715    0.0550 H   0  0  0  0  0  0  0  0  0  0  0  0
    2.9480   -1.1714   -1.7164 H   0  0  0  0  0  0  0  0  0  0  0  0
    1.8532   -0.2252   -0.6798 H   0  0  0  0  0  0  0  0  0  0  0  0
    1.2069   -5.9389   -2.5442 H   0  0  0  0  0  0  0  0  0  0  0  0
    0.9151   -5.2545   -4.1641 H   0  0  0  0  0  0  0  0  0  0  0  0
    2.7512   -7.3106   -6.3033 H   0  0  0  0  0  0  0  0  0  0  0  0
    4.4904   -3.5766   -8.2976 H   0  0  0  0  0  0  0  0  0  0  0  0
    3.9951   -5.8321   -7.7725 H   0  0  0  0  0  0  0  0  0  0  0  0
    5.7921   -3.1857   -5.2409 H   0  0  0  0  0  0  0  0  0  0  0  0
    6.0506   -2.0667   -6.6008 H   0  0  0  0  0  0  0  0  0  0  0  0
    5.3026   -1.4805   -5.0958 H   0  0  0  0  0  0  0  0  0  0  0  0
    2.2666   -1.9788   -3.4756 H   0  0  0  0  0  0  0  0  0  0  0  0
    4.0337   -2.1880   -3.4310 H   0  0  0  0  0  0  0  0  0  0  0  0
    4.0318   -0.6833   -5.5714 H   0  0  0  0  0  0  0  0  0  0  0  0
    2.3902   -0.2272   -5.0562 H   0  0  0  0  0  0  0  0  0  0  0  0
    4.7993    1.6479   -5.2111 H   0  0  0  0  0  0  0  0  0  0  0  0
    3.1767    2.1362   -4.6649 H   0  0  0  0  0  0  0  0  0  0  0  0
    6.8274    2.1547   -3.7149 H   0  0  0  0  0  0  0  0  0  0  0  0
    6.5160    2.7236   -2.0543 H   0  0  0  0  0  0  0  0  0  0  0  0
    4.2470    3.4348   -1.5174 H   0  0  0  0  0  0  0  0  0  0  0  0
    0.3226   -7.5773   -4.9798 H   0  0  0  0  0  0  0  0  0  0  0  0
    1.4929   -8.9047   -4.7877 H   0  0  0  0  0  0  0  0  0  0  0  0
    0.6573   -8.2417   -3.3627 H   0  0  0  0  0  0  0  0  0  0  0  0
  1  2  1  0  0  0  0
  1 38  1  0  0  0  0
  1 39  1  0  0  0  0
  1 40  1  0  0  0  0
  2  3  1  0  0  0  0
  2 41  1  0  0  0  0
  2 42  1  0  0  0  0
  3  4  1  0  0  0  0
  3  5  1  0  0  0  0
  3  6  1  0  0  0  0
  4 43  1  0  0  0  0
  4 44  1  0  0  0  0
  4 45  1  0  0  0  0
  5 46  1  0  0  0  0
  5 47  1  0  0  0  0
  5 48  1  0  0  0  0
  6  7  2  0  0  0  0
  6  8  1  0  0  0  0
  8  9  1  0  0  0  0
  9 10  1  1  0  0  0
  9 16  1  0  0  0  0
  9 11  1  0  0  0  0
 11 12  1  0  0  0  0
 11 49  1  0  0  0  0
 11 50  1  0  0  0  0
 12 13  1  1  0  0  0
 12 14  1  0  0  0  0
 12 37  1  0  0  0  0
 14 15  2  0  0  0  0
 14 51  1  0  0  0  0
 15 23  1  0  0  0  0
 15 16  1  0  0  0  0
 16 17  1  1  0  0  0
 16 18  1  0  0  0  0
 18 19  1  6  0  0  0
 18 20  1  0  0  0  0
 18 25  1  0  0  0  0
 20 21  1  6  0  0  0
 20 22  1  0  0  0  0
 20 24  1  0  0  0  0
 22 23  2  0  0  0  0
 22 52  1  0  0  0  0
 23 53  1  0  0  0  0
 24 54  1  0  0  0  0
 24 55  1  0  0  0  0
 24 56  1  0  0  0  0
 25 26  1  0  0  0  0
 25 57  1  0  0  0  0
 25 58  1  0  0  0  0
 26 27  1  0  0  0  0
 26 59  1  0  0  0  0
 26 60  1  0  0  0  0
 27 28  1  1  0  0  0
 27 35  1  0  0  0  0
 27 29  1  0  0  0  0
 29 30  1  0  0  0  0
 29 61  1  0  0  0  0
 29 62  1  0  0  0  0
 30 31  1  6  0  0  0
 30 32  1  0  0  0  0
 30 36  1  0  0  0  0
 32 33  1  0  0  0  0
 32 63  1  0  0  0  0
 32 64  1  0  0  0  0
 33 34  2  0  0  0  0
 33 35  1  0  0  0  0
 36 65  1  0  0  0  0
 37 66  1  0  0  0  0
 37 67  1  0  0  0  0
 37 68  1  0  0  0  0
M  END
$$$$
