ZINC29051126
 OpenBabel08292219463D

 84 88  0  0  1  0  0  0  0  0999 V2000
   -0.8979    2.0464   -0.5548 C   0  0  0  0  0  0  0  0  0  0  0  0
   -0.0023    1.3209    0.4444 C   0  0  2  0  0  0  0  0  0  0  0  0
   -0.4252    1.4373    1.4532 H   0  0  0  0  0  0  0  0  0  0  0  0
    1.3914    1.9464    0.4251 C   0  0  0  0  0  0  0  0  0  0  0  0
    2.3266    1.2038    1.3848 C   0  0  0  0  0  0  0  0  0  0  0  0
    2.4107   -0.2536    0.9577 C   0  0  1  0  0  0  0  0  0  0  0  0
    3.1840   -1.1032    1.9425 C   0  0  0  0  0  0  0  0  0  0  0  0
    2.1874   -1.2711    3.1224 C   0  0  0  0  0  0  0  0  0  0  0  0
    0.7947   -0.9697    2.5639 C   0  0  0  0  0  0  0  0  0  0  0  0
   -0.2042   -0.8350    3.2262 O   0  0  0  0  0  0  0  0  0  0  0  0
    0.9592   -0.8830    1.0838 C   0  0  1  0  0  0  0  0  0  0  0  0
    0.6744   -1.8779    0.7110 H   0  0  0  0  0  0  0  0  0  0  0  0
    0.0299   -0.1761    0.1980 C   0  0  2  0  0  0  0  0  0  0  0  0
   -0.0719   -0.5823   -1.2810 C   0  0  1  0  0  0  0  0  0  0  0  0
    0.5691    0.0860   -1.8747 H   0  0  0  0  0  0  0  0  0  0  0  0
    0.3089   -2.0618   -1.5095 C   0  0  0  0  0  0  0  0  0  0  0  0
    1.7884   -2.2620   -1.9352 C   0  0  1  0  0  0  0  0  0  0  0  0
    2.7133   -1.8464   -0.8685 C   0  0  2  0  0  0  0  0  0  0  0  0
    2.4308   -2.4250    0.0234 H   0  0  0  0  0  0  0  0  0  0  0  0
    2.6652   -0.3758   -0.5249 C   0  0  2  0  0  0  0  0  0  0  0  0
    1.8647    0.1294   -1.0852 H   0  0  0  0  0  0  0  0  0  0  0  0
    4.0504    0.2287   -0.8389 C   0  0  0  0  0  0  0  0  0  0  0  0
    4.0486   -2.1595   -1.2891 O   0  0  0  0  0  0  0  0  0  0  0  0
    2.0062   -3.7667   -2.1964 C   0  0  0  0  0  0  0  0  0  0  0  0
    2.0750   -1.5255   -3.2170 C   0  0  0  0  0  0  0  0  0  0  0  0
    2.3736   -2.1934   -4.3036 C   0  0  0  0  0  0  0  0  0  0  0  0
   -1.4760   -0.4698   -1.6780 O   0  0  0  0  0  0  0  0  0  0  0  0
   -1.7254   -0.2381   -2.9764 C   0  0  0  0  0  0  0  0  0  0  0  0
   -0.8112   -0.0407   -3.7414 O   0  0  0  0  0  0  0  0  0  0  0  0
   -3.1457   -0.2243   -3.4801 C   0  0  0  0  0  0  0  0  0  0  0  0
   -3.1520    0.1130   -5.2624 S   0  0  0  0  0  0  0  0  0  0  0  0
   -4.9108    0.0961   -5.7061 C   0  0  2  0  0  0  0  0  0  0  0  0
   -5.4779   -1.3094   -5.4869 C   0  0  0  0  0  0  0  0  0  0  0  0
   -6.9247   -1.3486   -6.0045 C   0  0  1  0  0  0  0  0  0  0  0  0
   -7.4063   -2.3061   -5.7568 H   0  0  0  0  0  0  0  0  0  0  0  0
   -7.6604   -0.1087   -5.4462 C   0  0  0  0  0  0  0  0  0  0  0  0
   -7.4086    1.0021   -6.4869 C   0  0  0  0  0  0  0  0  0  0  0  0
   -6.5436    0.3325   -7.5795 C   0  0  1  0  0  0  0  0  0  0  0  0
   -6.7200    0.7215   -8.5932 H   0  0  0  0  0  0  0  0  0  0  0  0
   -5.0691    0.4938   -7.1764 C   0  0  0  0  0  0  0  0  0  0  0  0
   -6.8742   -1.1135   -7.4721 N   0  3  2  0  0  0  0  0  0  0  0  0
   -8.1715   -1.4047   -8.0968 C   0  0  0  0  0  0  0  0  0  0  0  0
   -1.3543   -0.6109    0.7085 C   0  0  0  0  0  0  0  0  0  0  0  0
   -0.8904    3.1248   -0.3382 H   0  0  0  0  0  0  0  0  0  0  0  0
   -1.9255    1.6629   -0.4719 H   0  0  0  0  0  0  0  0  0  0  0  0
   -0.5236    1.8746   -1.5748 H   0  0  0  0  0  0  0  0  0  0  0  0
    1.8050    1.8889   -0.5926 H   0  0  0  0  0  0  0  0  0  0  0  0
    1.3249    2.9998    0.7349 H   0  0  0  0  0  0  0  0  0  0  0  0
    3.3265    1.6609    1.3494 H   0  0  0  0  0  0  0  0  0  0  0  0
    1.9293    1.2699    2.4084 H   0  0  0  0  0  0  0  0  0  0  0  0
    3.4463   -2.0624    1.4723 H   0  0  0  0  0  0  0  0  0  0  0  0
    4.1032   -0.5765    2.2386 H   0  0  0  0  0  0  0  0  0  0  0  0
    2.2423   -2.3010    3.5050 H   0  0  0  0  0  0  0  0  0  0  0  0
    2.4487   -0.5670    3.9261 H   0  0  0  0  0  0  0  0  0  0  0  0
    0.1545   -2.6280   -0.5791 H   0  0  0  0  0  0  0  0  0  0  0  0
   -0.3226   -2.4843   -2.3049 H   0  0  0  0  0  0  0  0  0  0  0  0
    4.2502    0.1468   -1.9175 H   0  0  0  0  0  0  0  0  0  0  0  0
    4.8242   -0.3180   -0.2800 H   0  0  0  0  0  0  0  0  0  0  0  0
    4.0638    1.2881   -0.5429 H   0  0  0  0  0  0  0  0  0  0  0  0
    4.9004   -1.9285   -0.6326 H   0  0  0  0  0  0  0  0  0  0  0  0
    3.0492   -3.9388   -2.5007 H   0  0  0  0  0  0  0  0  0  0  0  0
    1.3306   -4.1013   -2.9974 H   0  0  0  0  0  0  0  0  0  0  0  0
    1.7941   -4.3328   -1.2774 H   0  0  0  0  0  0  0  0  0  0  0  0
    2.0336   -0.4265   -3.2408 H   0  0  0  0  0  0  0  0  0  0  0  0
    2.5829   -1.6553   -5.2399 H   0  0  0  0  0  0  0  0  0  0  0  0
    2.4150   -3.2924   -4.2798 H   0  0  0  0  0  0  0  0  0  0  0  0
   -3.6115   -1.2026   -3.2904 H   0  0  0  0  0  0  0  0  0  0  0  0
   -3.7128    0.5595   -2.9566 H   0  0  0  0  0  0  0  0  0  0  0  0
   -5.6024    0.7592   -5.1658 H   0  0  0  0  0  0  0  0  0  0  0  0
   -4.8667   -2.0411   -6.0356 H   0  0  0  0  0  0  0  0  0  0  0  0
   -5.4604   -1.5486   -4.4134 H   0  0  0  0  0  0  0  0  0  0  0  0
   -8.7320   -0.3342   -5.3423 H   0  0  0  0  0  0  0  0  0  0  0  0
   -7.2436    0.1528   -4.4624 H   0  0  0  0  0  0  0  0  0  0  0  0
   -8.3707    1.3539   -6.8878 H   0  0  0  0  0  0  0  0  0  0  0  0
   -6.8823    1.8409   -6.0079 H   0  0  0  0  0  0  0  0  0  0  0  0
   -4.7599    1.5412   -7.3083 H   0  0  0  0  0  0  0  0  0  0  0  0
   -4.4393   -0.1559   -7.8019 H   0  0  0  0  0  0  0  0  0  0  0  0
   -8.1060   -1.2229   -9.1797 H   0  0  0  0  0  0  0  0  0  0  0  0
   -8.9428   -0.7523   -7.6614 H   0  0  0  0  0  0  0  0  0  0  0  0
   -8.4370   -2.4569   -7.9171 H   0  0  0  0  0  0  0  0  0  0  0  0
   -1.4654   -1.6984    0.5857 H   0  0  0  0  0  0  0  0  0  0  0  0
   -2.1363   -0.0950    0.1321 H   0  0  0  0  0  0  0  0  0  0  0  0
   -1.4510   -0.3503    1.7728 H   0  0  0  0  0  0  0  0  0  0  0  0
   -6.1552   -1.7636   -7.9920 H   0  0  0  0  0  0  0  0  0  0  0  0
  1  2  1  0  0  0  0
  1 44  1  0  0  0  0
  1 45  1  0  0  0  0
  1 46  1  0  0  0  0
  2  3  1  1  0  0  0
  2 13  1  0  0  0  0
  2  4  1  0  0  0  0
  4  5  1  0  0  0  0
  4 47  1  0  0  0  0
  4 48  1  0  0  0  0
  5 49  1  0  0  0  0
  5 50  1  0  0  0  0
  6  5  1  1  0  0  0
  6 11  1  0  0  0  0
  6 20  1  0  0  0  0
  6  7  1  0  0  0  0
  7  8  1  0  0  0  0
  7 51  1  0  0  0  0
  7 52  1  0  0  0  0
  8  9  1  0  0  0  0
  8 53  1  0  0  0  0
  8 54  1  0  0  0  0
  9 10  2  0  0  0  0
  9 11  1  0  0  0  0
 11 12  1  6  0  0  0
 11 13  1  0  0  0  0
 13 14  1  0  0  0  0
 13 43  1  1  0  0  0
 14 15  1  6  0  0  0
 14 16  1  0  0  0  0
 14 27  1  0  0  0  0
 16 17  1  0  0  0  0
 16 55  1  0  0  0  0
 16 56  1  0  0  0  0
 17 18  1  0  0  0  0
 17 24  1  0  0  0  0
 17 25  1  6  0  0  0
 18 19  1  1  0  0  0
 18 20  1  0  0  0  0
 18 23  1  0  0  0  0
 20 21  1  6  0  0  0
 20 22  1  0  0  0  0
 22 57  1  0  0  0  0
 22 58  1  0  0  0  0
 22 59  1  0  0  0  0
 23 60  1  0  0  0  0
 24 61  1  0  0  0  0
 24 62  1  0  0  0  0
 24 63  1  0  0  0  0
 25 26  2  0  0  0  0
 25 64  1  0  0  0  0
 26 65  1  0  0  0  0
 26 66  1  0  0  0  0
 27 28  1  0  0  0  0
 28 29  2  0  0  0  0
 28 30  1  0  0  0  0
 30 31  1  0  0  0  0
 30 67  1  0  0  0  0
 30 68  1  0  0  0  0
 31 32  1  0  0  0  0
 32 40  1  0  0  0  0
 32 33  1  0  0  0  0
 32 69  1  1  0  0  0
 33 34  1  0  0  0  0
 33 70  1  0  0  0  0
 33 71  1  0  0  0  0
 34 35  1  1  0  0  0
 34 41  1  0  0  0  0
 34 36  1  0  0  0  0
 36 37  1  0  0  0  0
 36 72  1  0  0  0  0
 36 73  1  0  0  0  0
 37 38  1  0  0  0  0
 37 74  1  0  0  0  0
 37 75  1  0  0  0  0
 38 39  1  6  0  0  0
 38 40  1  0  0  0  0
 38 41  1  0  0  0  0
 40 76  1  0  0  0  0
 40 77  1  0  0  0  0
 41 42  1  0  0  0  0
 41 84  1  6  0  0  0
 42 78  1  0  0  0  0
 42 79  1  0  0  0  0
 42 80  1  0  0  0  0
 43 81  1  0  0  0  0
 43 82  1  0  0  0  0
 43 83  1  0  0  0  0
M  CHG  1  41   1
M  END
$$$$
