ZINC33359785
 OpenBabel08292219463D

 77 83  0  0  1  0  0  0  0  0999 V2000
    0.0126    1.2223   -0.2561 C   0  0  0  0  0  0  0  0  0  0  0  0
   -0.0457   -0.2974   -0.0883 C   0  0  1  0  0  0  0  0  0  0  0  0
   -1.0842   -0.6188   -0.0092 H   0  0  0  0  0  0  0  0  0  0  0  0
    0.6058   -0.9667   -1.2765 C   0  0  0  0  0  0  0  0  0  0  0  0
    0.0412   -0.9666   -2.3499 O   0  0  0  0  0  0  0  0  0  0  0  0
    1.8009   -1.5596   -1.1559 N   0  0  0  0  0  0  0  0  0  0  0  0
    2.7116   -1.9481   -2.2542 C   0  0  0  0  0  0  0  0  0  0  0  0
    4.1006   -1.5161   -1.7116 C   0  0  0  0  0  0  0  0  0  0  0  0
    4.0064   -1.8852   -0.2106 C   0  0  0  0  0  0  0  0  0  0  0  0
    2.4987   -1.9179    0.0922 C   0  0  1  0  0  0  0  0  0  0  0  0
    2.2009   -2.9144    0.4183 H   0  0  0  0  0  0  0  0  0  0  0  0
    2.1514   -0.8723    1.1580 C   0  0  1  0  0  0  0  0  0  0  0  0
    0.6883   -0.6906    1.1229 N   0  0  0  0  0  0  0  0  0  0  0  0
    0.1792   -0.9446    2.3362 C   0  0  0  0  0  0  0  0  0  0  0  0
   -0.9849   -0.8304    2.6567 O   0  0  0  0  0  0  0  0  0  0  0  0
    1.3035   -1.3971    3.2350 C   0  0  2  0  0  0  0  0  0  0  0  0
    2.5060   -1.3544    2.4541 O   0  0  0  0  0  0  0  0  0  0  0  0
    1.0443   -2.8259    3.7169 C   0  0  0  0  0  0  0  0  0  0  0  0
    1.0019   -3.7701    2.5137 C   0  0  0  0  0  0  0  0  0  0  0  0
    2.1665   -3.2563    4.6636 C   0  0  0  0  0  0  0  0  0  0  0  0
    1.4198   -0.4949    4.3834 N   0  0  0  0  0  0  0  0  0  0  0  0
    0.4294   -0.4339    5.2955 C   0  0  0  0  0  0  0  0  0  0  0  0
   -0.5940   -1.0611    5.1222 O   0  0  0  0  0  0  0  0  0  0  0  0
    0.5938    0.4136    6.5307 C   0  0  2  0  0  0  0  0  0  0  0  0
    1.4546    0.0639    7.1006 H   0  0  0  0  0  0  0  0  0  0  0  0
   -0.6670    0.3109    7.3932 C   0  0  0  0  0  0  0  0  0  0  0  0
   -0.5241    1.2341    8.6075 C   0  0  2  0  0  0  0  0  0  0  0  0
    0.3147    0.8979    9.2169 H   0  0  0  0  0  0  0  0  0  0  0  0
   -1.7793    1.1833    9.4249 C   0  0  0  0  0  0  0  0  0  0  0  0
   -2.6411    0.1436    9.5788 C   0  0  0  0  0  0  0  0  0  0  0  0
   -3.7669    0.2754   10.3905 C   0  0  0  0  0  0  0  0  0  0  0  0
   -4.0967    1.4304   11.0868 C   0  0  0  0  0  0  0  0  0  0  0  0
   -3.2330    2.5157   10.9489 C   0  0  0  0  0  0  0  0  0  0  0  0
   -2.1156    2.3452   10.1234 C   0  0  0  0  0  0  0  0  0  0  0  0
   -1.3594    3.5975   10.1108 C   0  0  0  0  0  0  0  0  0  0  0  0
   -2.0258    4.4223   10.9038 C   0  0  0  0  0  0  0  0  0  0  0  0
   -3.1493    3.7919   11.4175 N   0  0  0  0  0  0  0  0  0  0  0  0
   -3.7857    4.2020   12.0239 H   0  0  0  0  0  0  0  0  0  0  0  0
   -0.1079    3.6765    9.2742 C   0  0  0  0  0  0  0  0  0  0  0  0
   -0.2592    2.6627    8.1308 C   0  0  1  0  0  0  0  0  0  0  0  0
   -1.0850    2.9688    7.4886 H   0  0  0  0  0  0  0  0  0  0  0  0
    0.9700    2.6975    7.3279 N   0  3  1  0  0  0  0  0  0  0  0  0
    0.8080    1.8736    6.1245 C   0  0  0  0  0  0  0  0  0  0  0  0
    1.2565    4.0836    6.9347 C   0  0  0  0  0  0  0  0  0  0  0  0
    2.8253    0.3578    0.8846 O   0  0  0  0  0  0  0  0  0  0  0  0
    1.0524    1.5395   -0.3348 H   0  0  0  0  0  0  0  0  0  0  0  0
   -0.5241    1.5087   -1.1606 H   0  0  0  0  0  0  0  0  0  0  0  0
   -0.4491    1.7012    0.6074 H   0  0  0  0  0  0  0  0  0  0  0  0
    2.6792   -3.0248   -2.4207 H   0  0  0  0  0  0  0  0  0  0  0  0
    2.4680   -1.4068   -3.1684 H   0  0  0  0  0  0  0  0  0  0  0  0
    4.8979   -2.0776   -2.1987 H   0  0  0  0  0  0  0  0  0  0  0  0
    4.2486   -0.4436   -1.8377 H   0  0  0  0  0  0  0  0  0  0  0  0
    4.4506   -2.8644   -0.0320 H   0  0  0  0  0  0  0  0  0  0  0  0
    4.4993   -1.1273    0.3982 H   0  0  0  0  0  0  0  0  0  0  0  0
    0.0904   -2.8645    4.2428 H   0  0  0  0  0  0  0  0  0  0  0  0
    1.9558   -3.7314    1.9877 H   0  0  0  0  0  0  0  0  0  0  0  0
    0.8173   -4.7880    2.8569 H   0  0  0  0  0  0  0  0  0  0  0  0
    0.2024   -3.4634    1.8392 H   0  0  0  0  0  0  0  0  0  0  0  0
    2.1406   -2.6395    5.5619 H   0  0  0  0  0  0  0  0  0  0  0  0
    2.0298   -4.3025    4.9372 H   0  0  0  0  0  0  0  0  0  0  0  0
    3.1286   -3.1336    4.1662 H   0  0  0  0  0  0  0  0  0  0  0  0
    2.2096    0.0586    4.4873 H   0  0  0  0  0  0  0  0  0  0  0  0
   -1.5348    0.6125    6.8067 H   0  0  0  0  0  0  0  0  0  0  0  0
   -0.7943   -0.7176    7.7308 H   0  0  0  0  0  0  0  0  0  0  0  0
   -2.4528   -0.7898    9.0692 H   0  0  0  0  0  0  0  0  0  0  0  0
   -4.4252   -0.5758   10.4833 H   0  0  0  0  0  0  0  0  0  0  0  0
   -4.9803    1.4854   11.7054 H   0  0  0  0  0  0  0  0  0  0  0  0
   -1.7355    5.4397   11.1204 H   0  0  0  0  0  0  0  0  0  0  0  0
   -0.0023    4.6805    8.8631 H   0  0  0  0  0  0  0  0  0  0  0  0
    0.7607    3.4353    9.8869 H   0  0  0  0  0  0  0  0  0  0  0  0
    1.7026    1.9513    5.5066 H   0  0  0  0  0  0  0  0  0  0  0  0
   -0.0556    2.2239    5.5592 H   0  0  0  0  0  0  0  0  0  0  0  0
    1.3875    4.6948    7.8277 H   0  0  0  0  0  0  0  0  0  0  0  0
    2.1686    4.1110    6.3386 H   0  0  0  0  0  0  0  0  0  0  0  0
    0.4260    4.4734    6.3462 H   0  0  0  0  0  0  0  0  0  0  0  0
    2.6430    1.0573    1.5270 H   0  0  0  0  0  0  0  0  0  0  0  0
    1.7383    2.3407    7.8760 H   0  0  0  0  0  0  0  0  0  0  0  0
  1  2  1  0  0  0  0
  1 46  1  0  0  0  0
  1 47  1  0  0  0  0
  1 48  1  0  0  0  0
  2  3  1  1  0  0  0
  2 13  1  0  0  0  0
  2  4  1  0  0  0  0
  4  5  2  0  0  0  0
  4  6  1  0  0  0  0
  6 10  1  0  0  0  0
  6  7  1  0  0  0  0
  7  8  1  0  0  0  0
  7 49  1  0  0  0  0
  7 50  1  0  0  0  0
  8  9  1  0  0  0  0
  8 51  1  0  0  0  0
  8 52  1  0  0  0  0
  9 10  1  0  0  0  0
  9 53  1  0  0  0  0
  9 54  1  0  0  0  0
 10 11  1  1  0  0  0
 10 12  1  0  0  0  0
 12 17  1  0  0  0  0
 12 13  1  0  0  0  0
 12 45  1  6  0  0  0
 13 14  1  0  0  0  0
 14 15  2  0  0  0  0
 14 16  1  0  0  0  0
 16 17  1  0  0  0  0
 16 18  1  1  0  0  0
 16 21  1  0  0  0  0
 18 19  1  0  0  0  0
 18 20  1  0  0  0  0
 18 55  1  0  0  0  0
 19 56  1  0  0  0  0
 19 57  1  0  0  0  0
 19 58  1  0  0  0  0
 20 59  1  0  0  0  0
 20 60  1  0  0  0  0
 20 61  1  0  0  0  0
 21 22  1  0  0  0  0
 21 62  1  0  0  0  0
 22 23  2  0  0  0  0
 22 24  1  0  0  0  0
 24 25  1  1  0  0  0
 24 43  1  0  0  0  0
 24 26  1  0  0  0  0
 26 27  1  0  0  0  0
 26 63  1  0  0  0  0
 26 64  1  0  0  0  0
 27 28  1  1  0  0  0
 27 40  1  0  0  0  0
 27 29  1  0  0  0  0
 29 34  2  0  0  0  0
 29 30  1  0  0  0  0
 30 31  2  0  0  0  0
 30 65  1  0  0  0  0
 31 32  1  0  0  0  0
 31 66  1  0  0  0  0
 32 33  2  0  0  0  0
 32 67  1  0  0  0  0
 33 37  1  0  0  0  0
 33 34  1  0  0  0  0
 34 35  1  0  0  0  0
 35 36  2  0  0  0  0
 35 39  1  0  0  0  0
 36 37  1  0  0  0  0
 36 68  1  0  0  0  0
 37 38  1  0  0  0  0
 39 40  1  0  0  0  0
 39 69  1  0  0  0  0
 39 70  1  0  0  0  0
 40 41  1  6  0  0  0
 40 42  1  0  0  0  0
 42 43  1  0  0  0  0
 42 44  1  0  0  0  0
 42 77  1  1  0  0  0
 43 71  1  0  0  0  0
 43 72  1  0  0  0  0
 44 73  1  0  0  0  0
 44 74  1  0  0  0  0
 44 75  1  0  0  0  0
 45 76  1  0  0  0  0
M  CHG  1  42   1
M  END
$$$$
