ZINC03812964
 OpenBabel08292219463D

 12 11  0  0  1  0  0  0  0  0999 V2000
   -0.0127    1.0858    0.0080 C   0  0  1  0  0  0  0  0  0  0  0  0
    0.0021   -0.0041    0.0020 H   0  0  0  0  0  0  0  0  0  0  0  0
    1.4227    1.6154   -0.0028 C   0  0  0  0  0  0  0  0  0  0  0  0
    2.1138    1.1420    1.1549 O   0  0  0  0  0  0  0  0  0  0  0  0
    3.4707    1.5816    1.2420 C   0  0  0  0  0  0  0  0  0  0  0  0
    4.1801    1.1296    0.1241 F   0  0  0  0  0  0  0  0  0  0  0  0
    3.5063    2.9796    1.2828 F   0  0  0  0  0  0  0  0  0  0  0  0
    2.0775    1.1642   -1.1539 F   0  0  0  0  0  0  0  0  0  0  0  0
    1.4037    3.0142    0.0048 F   0  0  0  0  0  0  0  0  0  0  0  0
   -0.6675    1.5370    1.1590 F   0  0  0  0  0  0  0  0  0  0  0  0
   -0.8847    1.6831   -1.4527 Cl  0  0  0  0  0  0  0  0  0  0  0  0
    3.9253    1.1800    2.1476 H   0  0  0  0  0  0  0  0  0  0  0  0
  1  2  1  6  0  0  0
  1  3  1  0  0  0  0
  1 10  1  0  0  0  0
  1 11  1  0  0  0  0
  3  4  1  0  0  0  0
  3  8  1  0  0  0  0
  3  9  1  0  0  0  0
  4  5  1  0  0  0  0
  5  6  1  0  0  0  0
  5  7  1  0  0  0  0
  5 12  1  0  0  0  0
M  END
$$$$
