ZINC00000135
 OpenBabel08292219463D

 24 24  0  0  1  0  0  0  0  0999 V2000
    1.7953    6.1412    0.3819 C   0  0  0  0  0  0  0  0  0  0  0  0
    1.9621    7.5060    0.5156 C   0  0  0  0  0  0  0  0  0  0  0  0
    3.2334    8.0412    0.6237 C   0  0  0  0  0  0  0  0  0  0  0  0
    4.3397    7.2105    0.6035 C   0  0  0  0  0  0  0  0  0  0  0  0
    4.1768    5.8447    0.4753 C   0  0  0  0  0  0  0  0  0  0  0  0
    2.9029    5.3062    0.3667 C   0  0  0  0  0  0  0  0  0  0  0  0
    2.7406    3.9627    0.2400 O   0  0  0  0  0  0  0  0  0  0  0  0
    1.4004    3.4784    0.1331 C   0  0  0  0  0  0  0  0  0  0  0  0
    1.4181    1.9544   -0.0010 C   0  0  1  0  0  0  0  0  0  0  0  0
    1.9710    1.5226    0.8333 H   0  0  0  0  0  0  0  0  0  0  0  0
   -0.0173    1.4248    0.0099 C   0  0  0  0  0  0  0  0  0  0  0  0
    0.0021   -0.0041    0.0020 O   0  0  0  0  0  0  0  0  0  0  0  0
    2.0503    1.5916   -1.2301 O   0  0  0  0  0  0  0  0  0  0  0  0
    3.4408    9.7572    0.7855 Cl  0  0  0  0  0  0  0  0  0  0  0  0
    0.8030    5.7242    0.2934 H   0  0  0  0  0  0  0  0  0  0  0  0
    1.0997    8.1561    0.5315 H   0  0  0  0  0  0  0  0  0  0  0  0
    5.3313    7.6300    0.6884 H   0  0  0  0  0  0  0  0  0  0  0  0
    5.0405    5.1965    0.4599 H   0  0  0  0  0  0  0  0  0  0  0  0
    0.9254    3.9149   -0.7454 H   0  0  0  0  0  0  0  0  0  0  0  0
    0.8407    3.7581    1.0256 H   0  0  0  0  0  0  0  0  0  0  0  0
   -0.5445    1.7859   -0.8732 H   0  0  0  0  0  0  0  0  0  0  0  0
   -0.5275    1.7763    0.9067 H   0  0  0  0  0  0  0  0  0  0  0  0
   -0.8759   -0.4094    0.0082 H   0  0  0  0  0  0  0  0  0  0  0  0
    1.6109    1.9422   -2.0169 H   0  0  0  0  0  0  0  0  0  0  0  0
  1  6  2  0  0  0  0
  1  2  1  0  0  0  0
  1 15  1  0  0  0  0
  2  3  2  0  0  0  0
  2 16  1  0  0  0  0
  3  4  1  0  0  0  0
  3 14  1  0  0  0  0
  4  5  2  0  0  0  0
  4 17  1  0  0  0  0
  5  6  1  0  0  0  0
  5 18  1  0  0  0  0
  6  7  1  0  0  0  0
  7  8  1  0  0  0  0
  8  9  1  0  0  0  0
  8 19  1  0  0  0  0
  8 20  1  0  0  0  0
  9 10  1  1  0  0  0
  9 11  1  0  0  0  0
  9 13  1  0  0  0  0
 11 12  1  0  0  0  0
 11 21  1  0  0  0  0
 11 22  1  0  0  0  0
 12 23  1  0  0  0  0
 13 24  1  0  0  0  0
M  END
$$$$
