ZINC00895042
 OpenBabel08292219463D

 14 13  0  0  1  0  0  0  0  0999 V2000
   -0.0127    1.0858    0.0080 C   0  0  0  0  0  0  0  0  0  0  0  0
   -0.7288    1.5792    1.2668 C   0  0  1  0  0  0  0  0  0  0  0  0
   -1.7514    1.2020    1.2746 H   0  0  0  0  0  0  0  0  0  0  0  0
    0.0000    1.0800    2.4877 C   0  0  0  0  0  0  0  0  0  0  0  0
    0.7544    1.8127    3.0826 O   0  0  0  0  0  0  0  0  0  0  0  0
   -0.8901    1.6867   -1.4616 S   0  0  0  0  0  0  0  0  0  0  0  0
    0.0021   -0.0041    0.0020 H   0  0  0  0  0  0  0  0  0  0  0  0
    1.0099    1.4631    0.0003 H   0  0  0  0  0  0  0  0  0  0  0  0
   -1.2723    3.3983    2.0632 H   0  0  0  0  0  0  0  0  0  0  0  0
    0.1882    3.4225    1.2680 H   0  0  0  0  0  0  0  0  0  0  0  0
   -0.1764    1.1953   -2.4903 H   0  0  0  0  0  0  0  0  0  0  0  0
   -0.1888   -0.1786    2.9142 O   0  0  0  0  0  1  0  0  0  0  0  0
   -0.7608    3.0524    1.2530 N   0  3  0  0  0  0  0  0  0  0  0  0
   -1.2315    3.3718    0.3982 H   0  0  0  0  0  0  0  0  0  0  0  0
  1  2  1  0  0  0  0
  1  6  1  0  0  0  0
  1  7  1  0  0  0  0
  1  8  1  0  0  0  0
  2  3  1  1  0  0  0
  2  4  1  0  0  0  0
  2 13  1  0  0  0  0
  4  5  2  0  0  0  0
  4 12  1  0  0  0  0
  6 11  1  0  0  0  0
  9 13  1  0  0  0  0
 10 13  1  0  0  0  0
 13 14  1  0  0  0  0
M  CHG  1  13   1
M  END
$$$$
