ZINC03830882
 OpenBabel08292219463D

 96 96  0  0  0  0  0  0  0  0999 V2000
   -3.0524   -1.5219   -1.0085 C   0  0  0  0  0  0  0  0  0  0  0  0
   -3.7225   -1.1930    0.3271 C   0  0  0  0  0  0  0  0  0  0  0  0
   -3.4874    0.2187    0.6583 N   0  3  0  0  0  0  0  0  0  0  0  0
   -4.1044    1.0714   -0.3664 C   0  0  0  0  0  0  0  0  0  0  0  0
   -5.6098    0.8027   -0.4146 C   0  0  0  0  0  0  0  0  0  0  0  0
   -4.0807    0.5197    1.9680 C   0  0  0  0  0  0  0  0  0  0  0  0
   -3.8359    1.9900    2.3130 C   0  0  0  0  0  0  0  0  0  0  0  0
   -2.0419    0.4766    0.7046 C   0  0  0  0  0  0  0  0  0  0  0  0
   -1.3903   -0.4545    1.7289 C   0  0  0  0  0  0  0  0  0  0  0  0
    0.0253   -0.2592    1.7174 O   0  0  0  0  0  0  0  0  0  0  0  0
    0.7674   -1.0732    2.5150 C   0  0  0  0  0  0  0  0  0  0  0  0
    0.1581   -2.1056    3.2120 C   0  0  0  0  0  0  0  0  0  0  0  0
    0.9115   -2.9335    4.0230 C   0  0  0  0  0  0  0  0  0  0  0  0
    2.2744   -2.7361    4.1428 C   0  0  0  0  0  0  0  0  0  0  0  0
    2.8913   -1.7060    3.4492 C   0  0  0  0  0  0  0  0  0  0  0  0
    2.1383   -0.8749    2.6283 C   0  0  0  0  0  0  0  0  0  0  0  0
    2.7409    0.1338    1.9415 O   0  0  0  0  0  0  0  0  0  0  0  0
    2.8548    1.3936    2.6063 C   0  0  0  0  0  0  0  0  0  0  0  0
    3.5296    2.4025    1.6748 C   0  0  0  0  0  0  0  0  0  0  0  0
    2.6229    2.7274    0.5656 N   0  3  0  0  0  0  0  0  0  0  0  0
    3.2067    3.8048   -0.2446 C   0  0  0  0  0  0  0  0  0  0  0  0
    2.2623    4.1431   -1.3998 C   0  0  0  0  0  0  0  0  0  0  0  0
    2.4270    1.5363   -0.2716 C   0  0  0  0  0  0  0  0  0  0  0  0
    3.7872    1.0022   -0.7249 C   0  0  0  0  0  0  0  0  0  0  0  0
    1.3283    3.1659    1.1038 C   0  0  0  0  0  0  0  0  0  0  0  0
    1.5425    4.3553    2.0421 C   0  0  0  0  0  0  0  0  0  0  0  0
    4.2322   -1.5123    3.5681 O   0  0  0  0  0  0  0  0  0  0  0  0
    4.9435   -2.4078    4.4249 C   0  0  0  0  0  0  0  0  0  0  0  0
    6.4277   -2.0362    4.4315 C   0  0  0  0  0  0  0  0  0  0  0  0
    6.6040   -0.7357    5.0915 N   0  3  0  0  0  0  0  0  0  0  0  0
    8.0376   -0.4405    5.2168 C   0  0  0  0  0  0  0  0  0  0  0  0
    8.2212    0.9140    5.9042 C   0  0  0  0  0  0  0  0  0  0  0  0
    5.9565    0.3117    4.2905 C   0  0  0  0  0  0  0  0  0  0  0  0
    6.5064    0.2753    2.8632 C   0  0  0  0  0  0  0  0  0  0  0  0
    5.9942   -0.7779    6.4273 C   0  0  0  0  0  0  0  0  0  0  0  0
    6.6685   -1.8688    7.2616 C   0  0  0  0  0  0  0  0  0  0  0  0
   -3.1749   -2.5832   -1.2249 H   0  0  0  0  0  0  0  0  0  0  0  0
   -3.5146   -0.9338   -1.8014 H   0  0  0  0  0  0  0  0  0  0  0  0
   -1.9905   -1.2830   -0.9508 H   0  0  0  0  0  0  0  0  0  0  0  0
   -4.7945   -1.3746    0.2502 H   0  0  0  0  0  0  0  0  0  0  0  0
   -3.3022   -1.8247    1.1096 H   0  0  0  0  0  0  0  0  0  0  0  0
   -3.9299    2.1189   -0.1206 H   0  0  0  0  0  0  0  0  0  0  0  0
   -3.6641    0.8481   -1.3382 H   0  0  0  0  0  0  0  0  0  0  0  0
   -6.0677    1.4355   -1.1750 H   0  0  0  0  0  0  0  0  0  0  0  0
   -5.7843   -0.2448   -0.6604 H   0  0  0  0  0  0  0  0  0  0  0  0
   -6.0501    1.0261    0.5572 H   0  0  0  0  0  0  0  0  0  0  0  0
   -5.1532    0.3283    1.9337 H   0  0  0  0  0  0  0  0  0  0  0  0
   -3.6229   -0.1131    2.7284 H   0  0  0  0  0  0  0  0  0  0  0  0
   -4.2761    2.2134    3.2848 H   0  0  0  0  0  0  0  0  0  0  0  0
   -2.7633    2.1814    2.3474 H   0  0  0  0  0  0  0  0  0  0  0  0
   -4.2937    2.6228    1.5527 H   0  0  0  0  0  0  0  0  0  0  0  0
   -1.6087    0.2949   -0.2789 H   0  0  0  0  0  0  0  0  0  0  0  0
   -1.8669    1.5132    0.9928 H   0  0  0  0  0  0  0  0  0  0  0  0
   -1.7797   -0.2313    2.7223 H   0  0  0  0  0  0  0  0  0  0  0  0
   -1.6163   -1.4899    1.4742 H   0  0  0  0  0  0  0  0  0  0  0  0
   -0.9065   -2.2629    3.1213 H   0  0  0  0  0  0  0  0  0  0  0  0
    0.4340   -3.7365    4.5647 H   0  0  0  0  0  0  0  0  0  0  0  0
    2.8595   -3.3849    4.7777 H   0  0  0  0  0  0  0  0  0  0  0  0
    1.8617    1.7542    2.8743 H   0  0  0  0  0  0  0  0  0  0  0  0
    3.4542    1.2752    3.5090 H   0  0  0  0  0  0  0  0  0  0  0  0
    3.7634    3.3104    2.2308 H   0  0  0  0  0  0  0  0  0  0  0  0
    4.4492    1.9724    1.2783 H   0  0  0  0  0  0  0  0  0  0  0  0
    3.3520    4.6886    0.3767 H   0  0  0  0  0  0  0  0  0  0  0  0
    4.1673    3.4794   -0.6439 H   0  0  0  0  0  0  0  0  0  0  0  0
    2.6955    4.9426   -2.0010 H   0  0  0  0  0  0  0  0  0  0  0  0
    2.1170    3.2594   -2.0210 H   0  0  0  0  0  0  0  0  0  0  0  0
    1.3017    4.4685   -1.0005 H   0  0  0  0  0  0  0  0  0  0  0  0
    1.9088    0.7691    0.3036 H   0  0  0  0  0  0  0  0  0  0  0  0
    1.8309    1.8003   -1.1452 H   0  0  0  0  0  0  0  0  0  0  0  0
    3.6419    0.1184   -1.3461 H   0  0  0  0  0  0  0  0  0  0  0  0
    4.3055    1.7694   -1.3001 H   0  0  0  0  0  0  0  0  0  0  0  0
    4.3834    0.7383    0.1487 H   0  0  0  0  0  0  0  0  0  0  0  0
    0.6756    3.4636    0.2831 H   0  0  0  0  0  0  0  0  0  0  0  0
    0.8677    2.3463    1.6554 H   0  0  0  0  0  0  0  0  0  0  0  0
    2.0031    5.1749    1.4905 H   0  0  0  0  0  0  0  0  0  0  0  0
    0.5819    4.6807    2.4414 H   0  0  0  0  0  0  0  0  0  0  0  0
    2.1951    4.0576    2.8628 H   0  0  0  0  0  0  0  0  0  0  0  0
    4.5461   -2.3346    5.4372 H   0  0  0  0  0  0  0  0  0  0  0  0
    4.8262   -3.4287    4.0614 H   0  0  0  0  0  0  0  0  0  0  0  0
    6.9904   -2.7973    4.9722 H   0  0  0  0  0  0  0  0  0  0  0  0
    6.7916   -1.9755    3.4059 H   0  0  0  0  0  0  0  0  0  0  0  0
    8.5180   -1.2177    5.8112 H   0  0  0  0  0  0  0  0  0  0  0  0
    8.4900   -0.4093    4.2256 H   0  0  0  0  0  0  0  0  0  0  0  0
    9.2849    1.1330    5.9971 H   0  0  0  0  0  0  0  0  0  0  0  0
    7.7407    1.6912    5.3098 H   0  0  0  0  0  0  0  0  0  0  0  0
    7.7687    0.8827    6.8953 H   0  0  0  0  0  0  0  0  0  0  0  0
    4.8803    0.1401    4.2697 H   0  0  0  0  0  0  0  0  0  0  0  0
    6.1605    1.2863    4.7337 H   0  0  0  0  0  0  0  0  0  0  0  0
    6.3024   -0.6994    2.4199 H   0  0  0  0  0  0  0  0  0  0  0  0
    6.0260    1.0524    2.2688 H   0  0  0  0  0  0  0  0  0  0  0  0
    7.5826    0.4468    2.8839 H   0  0  0  0  0  0  0  0  0  0  0  0
    6.1250    0.1871    6.9170 H   0  0  0  0  0  0  0  0  0  0  0  0
    4.9305   -0.9969    6.3344 H   0  0  0  0  0  0  0  0  0  0  0  0
    6.5377   -2.8337    6.7719 H   0  0  0  0  0  0  0  0  0  0  0  0
    7.7323   -1.6497    7.3546 H   0  0  0  0  0  0  0  0  0  0  0  0
    6.2161   -1.9000    8.2528 H   0  0  0  0  0  0  0  0  0  0  0  0
  1  2  1  0  0  0  0
  1 37  1  0  0  0  0
  1 38  1  0  0  0  0
  1 39  1  0  0  0  0
  2  3  1  0  0  0  0
  2 40  1  0  0  0  0
  2 41  1  0  0  0  0
  3  4  1  0  0  0  0
  3  6  1  0  0  0  0
  3  8  1  0  0  0  0
  4  5  1  0  0  0  0
  4 42  1  0  0  0  0
  4 43  1  0  0  0  0
  5 44  1  0  0  0  0
  5 45  1  0  0  0  0
  5 46  1  0  0  0  0
  6  7  1  0  0  0  0
  6 47  1  0  0  0  0
  6 48  1  0  0  0  0
  7 49  1  0  0  0  0
  7 50  1  0  0  0  0
  7 51  1  0  0  0  0
  8  9  1  0  0  0  0
  8 52  1  0  0  0  0
  8 53  1  0  0  0  0
  9 10  1  0  0  0  0
  9 54  1  0  0  0  0
  9 55  1  0  0  0  0
 10 11  1  0  0  0  0
 11 16  2  0  0  0  0
 11 12  1  0  0  0  0
 12 13  2  0  0  0  0
 12 56  1  0  0  0  0
 13 14  1  0  0  0  0
 13 57  1  0  0  0  0
 14 15  2  0  0  0  0
 14 58  1  0  0  0  0
 15 16  1  0  0  0  0
 15 27  1  0  0  0  0
 16 17  1  0  0  0  0
 17 18  1  0  0  0  0
 18 19  1  0  0  0  0
 18 59  1  0  0  0  0
 18 60  1  0  0  0  0
 19 20  1  0  0  0  0
 19 61  1  0  0  0  0
 19 62  1  0  0  0  0
 20 21  1  0  0  0  0
 20 23  1  0  0  0  0
 20 25  1  0  0  0  0
 21 22  1  0  0  0  0
 21 63  1  0  0  0  0
 21 64  1  0  0  0  0
 22 65  1  0  0  0  0
 22 66  1  0  0  0  0
 22 67  1  0  0  0  0
 23 24  1  0  0  0  0
 23 68  1  0  0  0  0
 23 69  1  0  0  0  0
 24 70  1  0  0  0  0
 24 71  1  0  0  0  0
 24 72  1  0  0  0  0
 25 26  1  0  0  0  0
 25 73  1  0  0  0  0
 25 74  1  0  0  0  0
 26 75  1  0  0  0  0
 26 76  1  0  0  0  0
 26 77  1  0  0  0  0
 27 28  1  0  0  0  0
 28 29  1  0  0  0  0
 28 78  1  0  0  0  0
 28 79  1  0  0  0  0
 29 30  1  0  0  0  0
 29 80  1  0  0  0  0
 29 81  1  0  0  0  0
 30 31  1  0  0  0  0
 30 33  1  0  0  0  0
 30 35  1  0  0  0  0
 31 32  1  0  0  0  0
 31 82  1  0  0  0  0
 31 83  1  0  0  0  0
 32 84  1  0  0  0  0
 32 85  1  0  0  0  0
 32 86  1  0  0  0  0
 33 34  1  0  0  0  0
 33 87  1  0  0  0  0
 33 88  1  0  0  0  0
 34 89  1  0  0  0  0
 34 90  1  0  0  0  0
 34 91  1  0  0  0  0
 35 36  1  0  0  0  0
 35 92  1  0  0  0  0
 35 93  1  0  0  0  0
 36 94  1  0  0  0  0
 36 95  1  0  0  0  0
 36 96  1  0  0  0  0
M  CHG  3   3   1  20   1  30   1
M  END
$$$$
