ZINC00896717
 OpenBabel08292219463D

 73 77  0  0  0  0  0  0  0  0999 V2000
   -0.1009    0.1147    0.5514 C   0  0  0  0  0  0  0  0  0  0  0  0
    0.1265   -1.3751    0.5622 C   0  0  0  0  0  0  0  0  0  0  0  0
    0.1604   -2.0779   -0.6279 C   0  0  0  0  0  0  0  0  0  0  0  0
    0.3689   -3.4441   -0.6179 C   0  0  0  0  0  0  0  0  0  0  0  0
    0.5441   -4.1080    0.5822 C   0  0  0  0  0  0  0  0  0  0  0  0
    0.5112   -3.4052    1.7719 C   0  0  0  0  0  0  0  0  0  0  0  0
    0.3068   -2.0379    1.7616 C   0  0  0  0  0  0  0  0  0  0  0  0
    0.2710   -1.1410    3.2779 S   0  0  0  0  0  0  0  0  0  0  0  0
   -0.8945   -0.3289    3.2419 O   0  0  0  0  0  0  0  0  0  0  0  0
    0.5105   -2.0842    4.3134 O   0  0  0  0  0  0  0  0  0  0  0  0
    1.5668   -0.1100    3.2677 N   0  0  0  0  0  0  0  0  0  0  0  0
    1.7788    0.6775    4.2799 C   0  0  0  0  0  0  0  0  0  0  0  0
    0.9410    0.6548    5.3414 O   0  5  0  0  0  0  0  0  0  0  0  0
    2.9370    1.5989    4.2708 C   0  0  0  0  0  0  0  0  0  0  0  0
    3.7994    1.6283    3.1744 C   0  0  0  0  0  0  0  0  0  0  0  0
    4.8781    2.4888    3.1687 C   0  0  0  0  0  0  0  0  0  0  0  0
    5.1078    3.3233    4.2470 C   0  0  0  0  0  0  0  0  0  0  0  0
    4.2550    3.3009    5.3419 C   0  0  0  0  0  0  0  0  0  0  0  0
    3.1664    2.4445    5.3551 C   0  0  0  0  0  0  0  0  0  0  0  0
    4.4855    4.1229    6.3995 O   0  0  0  0  0  0  0  0  0  0  0  0
    3.5677    4.0470    7.4922 C   0  0  0  0  0  0  0  0  0  0  0  0
    6.2882    4.2601    4.2336 C   0  0  0  0  0  0  0  0  0  0  0  0
    7.4498    3.6146    4.9444 C   0  0  0  0  0  0  0  0  0  0  0  0
    7.7842    3.7735    6.2347 C   0  0  0  0  0  0  0  0  0  0  0  0
    8.8964    3.0311    6.5234 N   0  0  0  0  0  0  0  0  0  0  0  0
    9.3161    2.3581    5.3954 C   0  0  0  0  0  0  0  0  0  0  0  0
    8.4241    2.6899    4.3596 C   0  0  0  0  0  0  0  0  0  0  0  0
    8.5989    2.1448    3.0863 C   0  0  0  0  0  0  0  0  0  0  0  0
    9.6493    1.2770    2.8537 C   0  0  0  0  0  0  0  0  0  0  0  0
   10.5285    0.9474    3.8834 C   0  0  0  0  0  0  0  0  0  0  0  0
   10.3700    1.4872    5.1402 C   0  0  0  0  0  0  0  0  0  0  0  0
    9.8306    0.7261    1.5775 N   0  0  0  0  0  0  0  0  0  0  0  0
    9.5105    1.4433    0.4822 C   0  0  0  0  0  0  0  0  0  0  0  0
    9.1565    2.6002    0.5956 O   0  0  0  0  0  0  0  0  0  0  0  0
    9.5828    0.8778   -0.7377 O   0  0  0  0  0  0  0  0  0  0  0  0
    9.2290    1.6964   -1.8542 C   0  0  0  0  0  0  0  0  0  0  0  0
    7.7352    1.5118   -2.1925 C   0  0  0  0  0  0  0  0  0  0  0  0
    7.6859    1.5716   -3.7395 C   0  0  0  0  0  0  0  0  0  0  0  0
    8.9780    0.8237   -4.1519 C   0  0  0  0  0  0  0  0  0  0  0  0
   10.0191    1.2589   -3.1000 C   0  0  0  0  0  0  0  0  0  0  0  0
    9.5448    2.9614    7.8353 C   0  0  0  0  0  0  0  0  0  0  0  0
    0.8581    0.6281    0.4816 H   0  0  0  0  0  0  0  0  0  0  0  0
   -0.7192    0.3816   -0.3057 H   0  0  0  0  0  0  0  0  0  0  0  0
   -0.6061    0.4118    1.4704 H   0  0  0  0  0  0  0  0  0  0  0  0
    0.0235   -1.5593   -1.5653 H   0  0  0  0  0  0  0  0  0  0  0  0
    0.3947   -3.9933   -1.5475 H   0  0  0  0  0  0  0  0  0  0  0  0
    0.7064   -5.1757    0.5900 H   0  0  0  0  0  0  0  0  0  0  0  0
    0.6477   -3.9238    2.7093 H   0  0  0  0  0  0  0  0  0  0  0  0
    3.6231    0.9775    2.3307 H   0  0  0  0  0  0  0  0  0  0  0  0
    5.5452    2.5104    2.3196 H   0  0  0  0  0  0  0  0  0  0  0  0
    2.4998    2.4289    6.2046 H   0  0  0  0  0  0  0  0  0  0  0  0
    3.8663    4.7531    8.2670 H   0  0  0  0  0  0  0  0  0  0  0  0
    2.5653    4.2938    7.1425 H   0  0  0  0  0  0  0  0  0  0  0  0
    3.5716    3.0364    7.9005 H   0  0  0  0  0  0  0  0  0  0  0  0
    6.5682    4.4770    3.2028 H   0  0  0  0  0  0  0  0  0  0  0  0
    6.0219    5.1875    4.7407 H   0  0  0  0  0  0  0  0  0  0  0  0
    7.2539    4.3958    6.9404 H   0  0  0  0  0  0  0  0  0  0  0  0
    7.9175    2.3993    2.2881 H   0  0  0  0  0  0  0  0  0  0  0  0
   11.3461    0.2682    3.6921 H   0  0  0  0  0  0  0  0  0  0  0  0
   11.0563    1.2237    5.9314 H   0  0  0  0  0  0  0  0  0  0  0  0
   10.1864   -0.1713    1.4827 H   0  0  0  0  0  0  0  0  0  0  0  0
    9.4351    2.7429   -1.6298 H   0  0  0  0  0  0  0  0  0  0  0  0
    7.3802    0.5446   -1.8367 H   0  0  0  0  0  0  0  0  0  0  0  0
    7.1436    2.3189   -1.7604 H   0  0  0  0  0  0  0  0  0  0  0  0
    6.8034    1.0558   -4.1181 H   0  0  0  0  0  0  0  0  0  0  0  0
    7.7097    2.6045   -4.0870 H   0  0  0  0  0  0  0  0  0  0  0  0
    8.8237   -0.2546   -4.1124 H   0  0  0  0  0  0  0  0  0  0  0  0
    9.2933    1.1286   -5.1497 H   0  0  0  0  0  0  0  0  0  0  0  0
   10.6081    2.0934   -3.4807 H   0  0  0  0  0  0  0  0  0  0  0  0
   10.6725    0.4222   -2.8529 H   0  0  0  0  0  0  0  0  0  0  0  0
    9.1082    2.1470    8.4135 H   0  0  0  0  0  0  0  0  0  0  0  0
   10.6119    2.7825    7.7041 H   0  0  0  0  0  0  0  0  0  0  0  0
    9.3965    3.9028    8.3643 H   0  0  0  0  0  0  0  0  0  0  0  0
  1  2  1  0  0  0  0
  1 42  1  0  0  0  0
  1 43  1  0  0  0  0
  1 44  1  0  0  0  0
  2  7  2  0  0  0  0
  2  3  1  0  0  0  0
  3  4  2  0  0  0  0
  3 45  1  0  0  0  0
  4  5  1  0  0  0  0
  4 46  1  0  0  0  0
  5  6  2  0  0  0  0
  5 47  1  0  0  0  0
  6  7  1  0  0  0  0
  6 48  1  0  0  0  0
  7  8  1  0  0  0  0
  8  9  2  0  0  0  0
  8 10  2  0  0  0  0
  8 11  1  0  0  0  0
 11 12  2  0  0  0  0
 12 13  1  0  0  0  0
 12 14  1  0  0  0  0
 14 19  2  0  0  0  0
 14 15  1  0  0  0  0
 15 16  2  0  0  0  0
 15 49  1  0  0  0  0
 16 17  1  0  0  0  0
 16 50  1  0  0  0  0
 17 18  2  0  0  0  0
 17 22  1  0  0  0  0
 18 19  1  0  0  0  0
 18 20  1  0  0  0  0
 19 51  1  0  0  0  0
 20 21  1  0  0  0  0
 21 52  1  0  0  0  0
 21 53  1  0  0  0  0
 21 54  1  0  0  0  0
 22 23  1  0  0  0  0
 22 55  1  0  0  0  0
 22 56  1  0  0  0  0
 23 27  1  0  0  0  0
 23 24  2  0  0  0  0
 24 25  1  0  0  0  0
 24 57  1  0  0  0  0
 25 26  1  0  0  0  0
 25 41  1  0  0  0  0
 26 31  2  0  0  0  0
 26 27  1  0  0  0  0
 27 28  2  0  0  0  0
 28 29  1  0  0  0  0
 28 58  1  0  0  0  0
 29 30  2  0  0  0  0
 29 32  1  0  0  0  0
 30 31  1  0  0  0  0
 30 59  1  0  0  0  0
 31 60  1  0  0  0  0
 32 33  1  0  0  0  0
 32 61  1  0  0  0  0
 33 34  2  0  0  0  0
 33 35  1  0  0  0  0
 35 36  1  0  0  0  0
 36 40  1  0  0  0  0
 36 37  1  0  0  0  0
 36 62  1  0  0  0  0
 37 38  1  0  0  0  0
 37 63  1  0  0  0  0
 37 64  1  0  0  0  0
 38 39  1  0  0  0  0
 38 65  1  0  0  0  0
 38 66  1  0  0  0  0
 39 40  1  0  0  0  0
 39 67  1  0  0  0  0
 39 68  1  0  0  0  0
 40 69  1  0  0  0  0
 40 70  1  0  0  0  0
 41 71  1  0  0  0  0
 41 72  1  0  0  0  0
 41 73  1  0  0  0  0
M  CHG  1  13  -1
M  END
$$$$
