ZINC01530571
 OpenBabel08292219463D

 60 63  0  0  0  0  0  0  0  0999 V2000
   -0.0167    1.3818    0.0096 C   0  0  0  0  0  0  0  0  0  0  0  0
    1.1915    2.0609    0.0018 C   0  0  0  0  0  0  0  0  0  0  0  0
    2.3197    1.3705   -0.0127 N   0  0  0  0  0  0  0  0  0  0  0  0
    2.3029    0.0457   -0.0197 C   0  0  0  0  0  0  0  0  0  0  0  0
    1.1654   -0.6335   -0.0129 N   0  0  0  0  0  0  0  0  0  0  0  0
    0.0021   -0.0041    0.0020 C   0  0  0  0  0  0  0  0  0  0  0  0
    3.5022   -0.6451   -0.0348 N   0  0  0  0  0  0  0  0  0  0  0  0
    4.7874    0.0707   -0.0371 C   0  0  0  0  0  0  0  0  0  0  0  0
    5.6545   -0.4916   -1.1683 C   0  0  0  0  0  0  0  0  0  0  0  0
    5.7718   -1.9473   -1.0165 N   0  3  0  0  0  0  0  0  0  0  0  0
    4.4544   -2.5749   -1.1794 C   0  0  0  0  0  0  0  0  0  0  0  0
    3.5278   -2.1159   -0.0430 C   0  0  0  0  0  0  0  0  0  0  0  0
    6.6913   -2.4716   -2.0352 C   0  0  0  0  0  0  0  0  0  0  0  0
    6.9121   -3.9674   -1.8016 C   0  0  0  0  0  0  0  0  0  0  0  0
    7.8697   -4.5135   -2.8626 C   0  0  0  0  0  0  0  0  0  0  0  0
    8.0905   -6.0093   -2.6289 C   0  0  0  0  0  0  0  0  0  0  0  0
    9.0074   -6.5321   -3.6449 N   0  0  0  0  0  0  0  0  0  0  0  0
    8.4943   -7.0005   -4.7921 C   0  0  0  0  0  0  0  0  0  0  0  0
    7.2949   -6.9658   -4.9647 O   0  0  0  0  0  0  0  0  0  0  0  0
    9.3797   -7.5686   -5.8706 C   0  0  0  0  0  0  0  0  0  0  0  0
   10.7544   -6.9065   -5.7927 C   0  0  0  0  0  0  0  0  0  0  0  0
   11.7066   -7.5412   -6.8156 C   0  0  0  0  0  0  0  0  0  0  0  0
   12.1410   -6.4083   -7.7700 C   0  0  0  0  0  0  0  0  0  0  0  0
   11.9376   -5.1147   -6.9422 C   0  0  0  0  0  0  0  0  0  0  0  0
   10.6393   -5.4143   -6.1507 C   0  0  0  0  0  0  0  0  0  0  0  0
   11.3191   -7.0612   -4.3813 C   0  0  0  0  0  0  0  0  0  0  0  0
   10.3239   -6.5167   -3.3897 C   0  0  0  0  0  0  0  0  0  0  0  0
   10.7205   -6.0600   -2.3391 O   0  0  0  0  0  0  0  0  0  0  0  0
   -0.9525    1.9208    0.0259 H   0  0  0  0  0  0  0  0  0  0  0  0
    1.2116    3.1407    0.0070 H   0  0  0  0  0  0  0  0  0  0  0  0
   -0.9219   -0.5632    0.0082 H   0  0  0  0  0  0  0  0  0  0  0  0
    4.6141    1.1341   -0.2023 H   0  0  0  0  0  0  0  0  0  0  0  0
    5.2907   -0.0773    0.9184 H   0  0  0  0  0  0  0  0  0  0  0  0
    5.1926   -0.2623   -2.1286 H   0  0  0  0  0  0  0  0  0  0  0  0
    6.6459   -0.0406   -1.1249 H   0  0  0  0  0  0  0  0  0  0  0  0
    4.0288   -2.2827   -2.1393 H   0  0  0  0  0  0  0  0  0  0  0  0
    4.5614   -3.6591   -1.1441 H   0  0  0  0  0  0  0  0  0  0  0  0
    3.9061   -2.4809    0.9119 H   0  0  0  0  0  0  0  0  0  0  0  0
    2.5214   -2.4989   -0.2121 H   0  0  0  0  0  0  0  0  0  0  0  0
    6.2623   -2.3179   -3.0254 H   0  0  0  0  0  0  0  0  0  0  0  0
    7.6452   -1.9486   -1.9674 H   0  0  0  0  0  0  0  0  0  0  0  0
    7.3410   -4.1211   -0.8114 H   0  0  0  0  0  0  0  0  0  0  0  0
    5.9581   -4.4905   -1.8694 H   0  0  0  0  0  0  0  0  0  0  0  0
    7.4407   -4.3598   -3.8528 H   0  0  0  0  0  0  0  0  0  0  0  0
    8.8236   -3.9904   -2.7947 H   0  0  0  0  0  0  0  0  0  0  0  0
    8.5194   -6.1630   -1.6388 H   0  0  0  0  0  0  0  0  0  0  0  0
    7.1365   -6.5323   -2.6968 H   0  0  0  0  0  0  0  0  0  0  0  0
    9.4847   -8.6439   -5.7267 H   0  0  0  0  0  0  0  0  0  0  0  0
    8.9360   -7.3726   -6.8468 H   0  0  0  0  0  0  0  0  0  0  0  0
   12.5771   -7.9571   -6.3083 H   0  0  0  0  0  0  0  0  0  0  0  0
   11.1896   -8.3222   -7.3732 H   0  0  0  0  0  0  0  0  0  0  0  0
   13.1891   -6.5234   -8.0465 H   0  0  0  0  0  0  0  0  0  0  0  0
   11.5103   -6.3955   -8.6589 H   0  0  0  0  0  0  0  0  0  0  0  0
   12.7754   -4.9549   -6.2634 H   0  0  0  0  0  0  0  0  0  0  0  0
   11.8006   -4.2545   -7.5974 H   0  0  0  0  0  0  0  0  0  0  0  0
    9.7628   -5.2377   -6.7741 H   0  0  0  0  0  0  0  0  0  0  0  0
   10.5946   -4.8071   -5.2466 H   0  0  0  0  0  0  0  0  0  0  0  0
   11.5032   -8.1158   -4.1763 H   0  0  0  0  0  0  0  0  0  0  0  0
   12.2530   -6.5051   -4.2998 H   0  0  0  0  0  0  0  0  0  0  0  0
    6.1334   -2.1605   -0.0990 H   0  0  0  0  0  0  0  0  0  0  0  0
  1  6  2  0  0  0  0
  1  2  1  0  0  0  0
  1 29  1  0  0  0  0
  2  3  2  0  0  0  0
  2 30  1  0  0  0  0
  3  4  1  0  0  0  0
  4  5  2  0  0  0  0
  4  7  1  0  0  0  0
  5  6  1  0  0  0  0
  6 31  1  0  0  0  0
  7 12  1  0  0  0  0
  7  8  1  0  0  0  0
  8  9  1  0  0  0  0
  8 32  1  0  0  0  0
  8 33  1  0  0  0  0
  9 10  1  0  0  0  0
  9 34  1  0  0  0  0
  9 35  1  0  0  0  0
 10 11  1  0  0  0  0
 10 13  1  0  0  0  0
 10 60  1  0  0  0  0
 11 12  1  0  0  0  0
 11 36  1  0  0  0  0
 11 37  1  0  0  0  0
 12 38  1  0  0  0  0
 12 39  1  0  0  0  0
 13 14  1  0  0  0  0
 13 40  1  0  0  0  0
 13 41  1  0  0  0  0
 14 15  1  0  0  0  0
 14 42  1  0  0  0  0
 14 43  1  0  0  0  0
 15 16  1  0  0  0  0
 15 44  1  0  0  0  0
 15 45  1  0  0  0  0
 16 17  1  0  0  0  0
 16 46  1  0  0  0  0
 16 47  1  0  0  0  0
 17 27  1  0  0  0  0
 17 18  1  0  0  0  0
 18 19  2  0  0  0  0
 18 20  1  0  0  0  0
 20 21  1  0  0  0  0
 20 48  1  0  0  0  0
 20 49  1  0  0  0  0
 21 25  1  0  0  0  0
 21 22  1  0  0  0  0
 21 26  1  0  0  0  0
 22 23  1  0  0  0  0
 22 50  1  0  0  0  0
 22 51  1  0  0  0  0
 23 24  1  0  0  0  0
 23 52  1  0  0  0  0
 23 53  1  0  0  0  0
 24 25  1  0  0  0  0
 24 54  1  0  0  0  0
 24 55  1  0  0  0  0
 25 56  1  0  0  0  0
 25 57  1  0  0  0  0
 26 27  1  0  0  0  0
 26 58  1  0  0  0  0
 26 59  1  0  0  0  0
 27 28  2  0  0  0  0
M  CHG  1  10   1
M  END
$$$$
