ZINC03872735
 OpenBabel08292219463D

 23 23  0  0  0  0  0  0  0  0999 V2000
   -0.0167    1.3796    0.0096 C   0  0  0  0  0  0  0  0  0  0  0  0
    1.1675    2.0954    0.0022 C   0  0  0  0  0  0  0  0  0  0  0  0
    2.3785    1.4334   -0.0130 C   0  0  0  0  0  0  0  0  0  0  0  0
    2.4065    0.0344   -0.0208 C   0  0  0  0  0  0  0  0  0  0  0  0
    1.2044   -0.6817   -0.0131 C   0  0  0  0  0  0  0  0  0  0  0  0
    0.0021   -0.0041    0.0020 C   0  0  0  0  0  0  0  0  0  0  0  0
    1.2252   -2.4176   -0.0233 Cl  0  0  0  0  0  0  0  0  0  0  0  0
    3.6930   -0.6797   -0.0374 C   0  0  0  0  0  0  0  0  0  0  0  0
    3.7150   -1.9845   -0.0446 N   0  0  0  0  0  0  0  0  0  0  0  0
    4.8427   -2.6105   -0.0592 N   0  0  0  0  0  4  0  0  0  0  0  0
    4.8649   -3.9280   -0.0665 C   0  0  0  0  0  0  0  0  0  0  0  0
    3.6886   -4.6338   -0.0586 N   0  0  0  0  0  0  0  0  0  0  0  0
    6.0642   -4.5937   -0.0820 N   0  0  0  0  0  0  0  0  0  0  0  0
    3.8628    2.3338   -0.0229 Cl  0  0  0  0  0  0  0  0  0  0  0  0
   -0.9608    1.9037    0.0260 H   0  0  0  0  0  0  0  0  0  0  0  0
    1.1441    3.1752    0.0078 H   0  0  0  0  0  0  0  0  0  0  0  0
   -0.9267   -0.5552    0.0079 H   0  0  0  0  0  0  0  0  0  0  0  0
    4.6191   -0.1240   -0.0436 H   0  0  0  0  0  0  0  0  0  0  0  0
    2.8406   -4.1630   -0.0477 H   0  0  0  0  0  0  0  0  0  0  0  0
    3.7050   -5.6036   -0.0640 H   0  0  0  0  0  0  0  0  0  0  0  0
    6.8959   -4.0946   -0.0876 H   0  0  0  0  0  0  0  0  0  0  0  0
    6.0805   -5.5636   -0.0874 H   0  0  0  0  0  0  0  0  0  0  0  0
    5.6745   -2.1114   -0.0648 H   0  0  0  0  0  0  0  0  0  0  0  0
  1  6  2  0  0  0  0
  1  2  1  0  0  0  0
  1 15  1  0  0  0  0
  2  3  2  0  0  0  0
  2 16  1  0  0  0  0
  3  4  1  0  0  0  0
  3 14  1  0  0  0  0
  4  5  2  0  0  0  0
  4  8  1  0  0  0  0
  5  6  1  0  0  0  0
  5  7  1  0  0  0  0
  6 17  1  0  0  0  0
  8  9  2  0  0  0  0
  8 18  1  0  0  0  0
  9 10  1  0  0  0  0
 10 11  2  0  0  0  0
 10 23  1  0  0  0  0
 11 12  1  0  0  0  0
 11 13  1  0  0  0  0
 12 19  1  0  0  0  0
 12 20  1  0  0  0  0
 13 21  1  0  0  0  0
 13 22  1  0  0  0  0
M  END
$$$$
