ZINC22116612
 OpenBabel08292219463D

 37 39  0  0  1  0  0  0  0  0999 V2000
    0.1422    1.1018   -0.8160 C   0  0  0  0  0  0  0  0  0  0  0  0
    1.3286    1.8095   -0.8255 C   0  0  0  0  0  0  0  0  0  0  0  0
    2.3799    1.4098   -0.0133 C   0  0  0  0  0  0  0  0  0  0  0  0
    2.2367    0.2999    0.8067 C   0  0  0  0  0  0  0  0  0  0  0  0
    1.0483   -0.4044    0.8125 C   0  0  0  0  0  0  0  0  0  0  0  0
    0.0021   -0.0041    0.0020 C   0  0  0  0  0  0  0  0  0  0  0  0
   -1.2859   -0.7695    0.0107 C   0  0  1  0  0  0  0  0  0  0  0  0
   -2.0857    0.0131    0.1175 H   0  0  0  0  0  0  0  0  0  0  0  0
   -1.5763   -1.4758   -1.2923 C   0  0  0  0  0  0  0  0  0  0  0  0
   -0.4936   -2.3141   -1.8019 N   0  3  0  0  0  0  0  0  0  0  0  0
    0.2443   -2.9841   -0.7188 C   0  0  0  0  0  0  0  0  0  0  0  0
   -0.7993   -3.8000    0.0690 C   0  0  0  0  0  0  0  0  0  0  0  0
   -1.2376   -2.9908    1.2681 C   0  0  0  0  0  0  0  0  0  0  0  0
   -1.4325   -1.6311    1.2326 C   0  0  0  0  0  0  0  0  0  0  0  0
   -1.8082   -0.9677    2.4018 C   0  0  0  0  0  0  0  0  0  0  0  0
   -2.0008   -1.6571    3.5824 C   0  0  0  0  0  0  0  0  0  0  0  0
   -1.8212   -3.0358    3.6085 C   0  0  0  0  0  0  0  0  0  0  0  0
   -1.4411   -3.6935    2.4526 C   0  0  0  0  0  0  0  0  0  0  0  0
   -1.2175   -5.4152    2.4819 Cl  0  0  0  0  0  0  0  0  0  0  0  0
   -2.0182   -3.7312    4.7604 O   0  5  0  0  0  0  0  0  0  0  0  0
   -2.3652   -0.9941    4.7130 O   0  0  0  0  0  0  0  0  0  0  0  0
    3.5481    2.1041   -0.0212 O   0  0  0  0  0  0  0  0  0  0  0  0
   -0.6780    1.4152   -1.4448 H   0  0  0  0  0  0  0  0  0  0  0  0
    1.4377    2.6730   -1.4650 H   0  0  0  0  0  0  0  0  0  0  0  0
    3.0538   -0.0134    1.4396 H   0  0  0  0  0  0  0  0  0  0  0  0
    0.9364   -1.2685    1.4506 H   0  0  0  0  0  0  0  0  0  0  0  0
   -2.4743   -2.1053   -1.1780 H   0  0  0  0  0  0  0  0  0  0  0  0
   -1.8230   -0.7293   -2.0665 H   0  0  0  0  0  0  0  0  0  0  0  0
   -0.8849   -3.0230   -2.4099 H   0  0  0  0  0  0  0  0  0  0  0  0
    0.9479   -3.6943   -1.1747 H   0  0  0  0  0  0  0  0  0  0  0  0
    0.7797   -2.3222   -0.0741 H   0  0  0  0  0  0  0  0  0  0  0  0
   -1.6506   -4.0007   -0.5709 H   0  0  0  0  0  0  0  0  0  0  0  0
   -0.3392   -4.7261    0.3966 H   0  0  0  0  0  0  0  0  0  0  0  0
   -1.9514    0.1029    2.3759 H   0  0  0  0  0  0  0  0  0  0  0  0
   -3.3216   -0.9182    4.8335 H   0  0  0  0  0  0  0  0  0  0  0  0
    3.5826    2.8232    0.6245 H   0  0  0  0  0  0  0  0  0  0  0  0
    0.1484   -1.7509   -2.3393 H   0  0  0  0  0  0  0  0  0  0  0  0
  1  6  2  0  0  0  0
  1  2  1  0  0  0  0
  1 23  1  0  0  0  0
  2  3  2  0  0  0  0
  2 24  1  0  0  0  0
  3  4  1  0  0  0  0
  3 22  1  0  0  0  0
  4  5  2  0  0  0  0
  4 25  1  0  0  0  0
  5  6  1  0  0  0  0
  5 26  1  0  0  0  0
  6  7  1  0  0  0  0
  7  8  1  1  0  0  0
  7 14  1  0  0  0  0
  7  9  1  0  0  0  0
  9 10  1  0  0  0  0
  9 27  1  0  0  0  0
  9 28  1  0  0  0  0
 10 11  1  0  0  0  0
 10 29  1  0  0  0  0
 10 37  1  0  0  0  0
 11 12  1  0  0  0  0
 11 30  1  0  0  0  0
 11 31  1  0  0  0  0
 12 13  1  0  0  0  0
 12 32  1  0  0  0  0
 12 33  1  0  0  0  0
 13 18  2  0  0  0  0
 13 14  1  0  0  0  0
 14 15  2  0  0  0  0
 15 16  1  0  0  0  0
 15 34  1  0  0  0  0
 16 17  2  0  0  0  0
 16 21  1  0  0  0  0
 17 18  1  0  0  0  0
 17 20  1  0  0  0  0
 18 19  1  0  0  0  0
 21 35  1  0  0  0  0
 22 36  1  0  0  0  0
M  CHG  2  10   1  20  -1
M  END
$$$$
