ZINC02019492
 OpenBabel08292219463D

 51 51  0  0  0  0  0  0  0  0999 V2000
    0.4879    1.5443   -0.5521 C   0  0  0  0  0  0  0  0  0  0  0  0
    0.4330    0.0166   -0.4889 C   0  0  0  0  0  0  0  0  0  0  0  0
   -1.0269   -0.4411   -0.4738 C   0  0  0  0  0  0  0  0  0  0  0  0
   -1.0818   -1.9688   -0.4106 C   0  0  0  0  0  0  0  0  0  0  0  0
   -2.4452   -2.3962   -0.3966 O   0  0  0  0  0  0  0  0  0  0  0  0
   -2.6717   -3.7363   -0.3416 C   0  0  0  0  0  0  0  0  0  0  0  0
   -1.6083   -4.6147   -0.2966 C   0  0  0  0  0  0  0  0  0  0  0  0
   -1.8446   -5.9922   -0.2402 C   0  0  0  0  0  0  0  0  0  0  0  0
   -3.1571   -6.4739   -0.2296 C   0  0  0  0  0  0  0  0  0  0  0  0
   -4.2144   -5.5931   -0.2751 C   0  0  0  0  0  0  0  0  0  0  0  0
   -3.9802   -4.2232   -0.3249 C   0  0  0  0  0  0  0  0  0  0  0  0
   -5.0527   -3.3357   -0.3640 N   0  0  0  0  0  0  0  0  0  0  0  0
   -0.7121   -6.9342   -0.1925 C   0  0  0  0  0  0  0  0  0  0  0  0
    0.4262   -6.5215   -0.2961 O   0  0  0  0  0  0  0  0  0  0  0  0
   -0.9389   -8.2531   -0.0341 O   0  0  0  0  0  0  0  0  0  0  0  0
    0.2061   -9.0948    0.1159 C   0  0  0  0  0  0  0  0  0  0  0  0
   -0.2389  -10.5580    0.1606 C   0  0  0  0  0  0  0  0  0  0  0  0
   -0.8522  -10.9228   -1.1234 N   0  3  0  0  0  0  0  0  0  0  0  0
    0.1649  -10.8771   -2.1824 C   0  0  0  0  0  0  0  0  0  0  0  0
   -0.4976  -11.1347   -3.5373 C   0  0  0  0  0  0  0  0  0  0  0  0
   -1.4051  -12.2808   -1.0338 C   0  0  0  0  0  0  0  0  0  0  0  0
   -2.5691  -12.2931   -0.0409 C   0  0  0  0  0  0  0  0  0  0  0  0
    1.5279    1.8704   -0.5629 H   0  0  0  0  0  0  0  0  0  0  0  0
   -0.0102    1.8886   -1.4585 H   0  0  0  0  0  0  0  0  0  0  0  0
   -0.0149    1.9624    0.3199 H   0  0  0  0  0  0  0  0  0  0  0  0
    0.9358   -0.4014   -1.3610 H   0  0  0  0  0  0  0  0  0  0  0  0
    0.9311   -0.3276    0.4174 H   0  0  0  0  0  0  0  0  0  0  0  0
   -1.5297   -0.0230    0.3982 H   0  0  0  0  0  0  0  0  0  0  0  0
   -1.5250   -0.0968   -1.3802 H   0  0  0  0  0  0  0  0  0  0  0  0
   -0.5789   -2.3868   -1.2827 H   0  0  0  0  0  0  0  0  0  0  0  0
   -0.5837   -2.3130    0.4957 H   0  0  0  0  0  0  0  0  0  0  0  0
   -0.5957   -4.2393   -0.3054 H   0  0  0  0  0  0  0  0  0  0  0  0
   -3.3416   -7.5371   -0.1860 H   0  0  0  0  0  0  0  0  0  0  0  0
   -5.2277   -5.9667   -0.2675 H   0  0  0  0  0  0  0  0  0  0  0  0
   -4.8903   -2.3802   -0.4029 H   0  0  0  0  0  0  0  0  0  0  0  0
   -5.9620   -3.6731   -0.3525 H   0  0  0  0  0  0  0  0  0  0  0  0
    0.8798   -8.9456   -0.7279 H   0  0  0  0  0  0  0  0  0  0  0  0
    0.7228   -8.8437    1.0422 H   0  0  0  0  0  0  0  0  0  0  0  0
    0.6260  -11.1954    0.3442 H   0  0  0  0  0  0  0  0  0  0  0  0
   -0.9658  -10.6923    0.9617 H   0  0  0  0  0  0  0  0  0  0  0  0
    0.6376   -9.8950   -2.1900 H   0  0  0  0  0  0  0  0  0  0  0  0
    0.9188  -11.6418   -1.9953 H   0  0  0  0  0  0  0  0  0  0  0  0
    0.2570  -11.1008   -4.3230 H   0  0  0  0  0  0  0  0  0  0  0  0
   -0.9704  -12.1168   -3.5297 H   0  0  0  0  0  0  0  0  0  0  0  0
   -1.2515  -10.3700   -3.7243 H   0  0  0  0  0  0  0  0  0  0  0  0
   -1.7613  -12.5936   -2.0152 H   0  0  0  0  0  0  0  0  0  0  0  0
   -0.6297  -12.9670   -0.6930 H   0  0  0  0  0  0  0  0  0  0  0  0
   -2.2297  -11.9107    0.9217 H   0  0  0  0  0  0  0  0  0  0  0  0
   -3.3751  -11.6636   -0.4182 H   0  0  0  0  0  0  0  0  0  0  0  0
   -2.9319  -13.3136    0.0810 H   0  0  0  0  0  0  0  0  0  0  0  0
   -1.5923  -10.2720   -1.3396 H   0  0  0  0  0  0  0  0  0  0  0  0
  1  2  1  0  0  0  0
  1 23  1  0  0  0  0
  1 24  1  0  0  0  0
  1 25  1  0  0  0  0
  2  3  1  0  0  0  0
  2 26  1  0  0  0  0
  2 27  1  0  0  0  0
  3  4  1  0  0  0  0
  3 28  1  0  0  0  0
  3 29  1  0  0  0  0
  4  5  1  0  0  0  0
  4 30  1  0  0  0  0
  4 31  1  0  0  0  0
  5  6  1  0  0  0  0
  6 11  2  0  0  0  0
  6  7  1  0  0  0  0
  7  8  2  0  0  0  0
  7 32  1  0  0  0  0
  8  9  1  0  0  0  0
  8 13  1  0  0  0  0
  9 10  2  0  0  0  0
  9 33  1  0  0  0  0
 10 11  1  0  0  0  0
 10 34  1  0  0  0  0
 11 12  1  0  0  0  0
 12 35  1  0  0  0  0
 12 36  1  0  0  0  0
 13 14  2  0  0  0  0
 13 15  1  0  0  0  0
 15 16  1  0  0  0  0
 16 17  1  0  0  0  0
 16 37  1  0  0  0  0
 16 38  1  0  0  0  0
 17 18  1  0  0  0  0
 17 39  1  0  0  0  0
 17 40  1  0  0  0  0
 18 19  1  0  0  0  0
 18 21  1  0  0  0  0
 18 51  1  0  0  0  0
 19 20  1  0  0  0  0
 19 41  1  0  0  0  0
 19 42  1  0  0  0  0
 20 43  1  0  0  0  0
 20 44  1  0  0  0  0
 20 45  1  0  0  0  0
 21 22  1  0  0  0  0
 21 46  1  0  0  0  0
 21 47  1  0  0  0  0
 22 48  1  0  0  0  0
 22 49  1  0  0  0  0
 22 50  1  0  0  0  0
M  CHG  1  18   1
M  END
$$$$
