ZINC01530769
 OpenBabel08292219463D

 55 56  0  0  1  0  0  0  0  0999 V2000
    0.2497   -0.9201    2.1813 C   0  0  0  0  0  0  0  0  0  0  0  0
    0.5752   -2.1709    1.3624 C   0  0  0  0  0  0  0  0  0  0  0  0
    1.1310   -1.7633    0.0222 C   0  0  0  0  0  0  0  0  0  0  0  0
    1.2541   -0.5926   -0.2500 O   0  0  0  0  0  0  0  0  0  0  0  0
    1.4892   -2.7009   -0.8691 O   0  0  0  0  0  0  0  0  0  0  0  0
    1.8875   -2.2465   -2.1640 C   0  0  2  0  0  0  0  0  0  0  0  0
    2.5554   -3.3941   -2.9241 C   0  0  0  0  0  0  0  0  0  0  0  0
    1.6337   -4.5862   -2.9452 C   0  0  0  0  0  0  0  0  0  0  0  0
    1.1630   -5.1170   -1.7588 C   0  0  0  0  0  0  0  0  0  0  0  0
    0.3176   -6.2105   -1.7782 C   0  0  0  0  0  0  0  0  0  0  0  0
   -0.0575   -6.7729   -2.9840 C   0  0  0  0  0  0  0  0  0  0  0  0
    0.4125   -6.2415   -4.1704 C   0  0  0  0  0  0  0  0  0  0  0  0
    1.2545   -5.1454   -4.1512 C   0  0  0  0  0  0  0  0  0  0  0  0
    2.8619   -1.1061   -2.0185 C   0  0  0  0  0  0  0  0  0  0  0  0
    2.9194   -0.1187   -2.9842 C   0  0  0  0  0  0  0  0  0  0  0  0
    3.8132    0.9274   -2.8507 C   0  0  0  0  0  0  0  0  0  0  0  0
    4.6491    0.9863   -1.7513 C   0  0  0  0  0  0  0  0  0  0  0  0
    4.5908   -0.0006   -0.7851 C   0  0  0  0  0  0  0  0  0  0  0  0
    3.6941   -1.0444   -0.9164 C   0  0  0  0  0  0  0  0  0  0  0  0
    0.6568   -1.7701   -2.9382 C   0  0  2  0  0  0  0  0  0  0  0  0
    0.9314   -1.5798   -3.9757 H   0  0  0  0  0  0  0  0  0  0  0  0
    0.1243   -0.4820   -2.3071 C   0  0  0  0  0  0  0  0  0  0  0  0
   -0.4269   -2.8489   -2.8872 C   0  0  0  0  0  0  0  0  0  0  0  0
   -1.6302   -2.3673   -3.5786 N   0  3  0  0  0  0  0  0  0  0  0  0
   -1.3318   -2.1743   -5.0040 C   0  0  0  0  0  0  0  0  0  0  0  0
   -2.7072   -3.3558   -3.4332 C   0  0  0  0  0  0  0  0  0  0  0  0
    1.1577   -0.3350    2.3272 H   0  0  0  0  0  0  0  0  0  0  0  0
   -0.4881   -0.3194    1.6494 H   0  0  0  0  0  0  0  0  0  0  0  0
   -0.1522   -1.2149    3.1506 H   0  0  0  0  0  0  0  0  0  0  0  0
    1.3130   -2.7716    1.8942 H   0  0  0  0  0  0  0  0  0  0  0  0
   -0.3328   -2.7560    1.2165 H   0  0  0  0  0  0  0  0  0  0  0  0
    2.7656   -3.0792   -3.9462 H   0  0  0  0  0  0  0  0  0  0  0  0
    3.4877   -3.6644   -2.4281 H   0  0  0  0  0  0  0  0  0  0  0  0
    1.4560   -4.6776   -0.8168 H   0  0  0  0  0  0  0  0  0  0  0  0
   -0.0496   -6.6257   -0.8513 H   0  0  0  0  0  0  0  0  0  0  0  0
   -0.7174   -7.6277   -2.9991 H   0  0  0  0  0  0  0  0  0  0  0  0
    0.1198   -6.6811   -5.1125 H   0  0  0  0  0  0  0  0  0  0  0  0
    1.6188   -4.7279   -5.0783 H   0  0  0  0  0  0  0  0  0  0  0  0
    2.2664   -0.1647   -3.8432 H   0  0  0  0  0  0  0  0  0  0  0  0
    3.8587    1.6985   -3.6055 H   0  0  0  0  0  0  0  0  0  0  0  0
    5.3478    1.8032   -1.6473 H   0  0  0  0  0  0  0  0  0  0  0  0
    5.2441    0.0452    0.0737 H   0  0  0  0  0  0  0  0  0  0  0  0
    3.6460   -1.8135   -0.1597 H   0  0  0  0  0  0  0  0  0  0  0  0
   -0.5336   -0.7305   -1.4743 H   0  0  0  0  0  0  0  0  0  0  0  0
    0.9595    0.1170   -1.9442 H   0  0  0  0  0  0  0  0  0  0  0  0
   -0.4324    0.0850   -3.0532 H   0  0  0  0  0  0  0  0  0  0  0  0
   -0.0636   -3.7524   -3.3769 H   0  0  0  0  0  0  0  0  0  0  0  0
   -0.6695   -3.0714   -1.8481 H   0  0  0  0  0  0  0  0  0  0  0  0
   -2.2007   -1.7445   -5.5022 H   0  0  0  0  0  0  0  0  0  0  0  0
   -0.4820   -1.4998   -5.1092 H   0  0  0  0  0  0  0  0  0  0  0  0
   -1.0911   -3.1355   -5.4581 H   0  0  0  0  0  0  0  0  0  0  0  0
   -2.9286   -3.4989   -2.3756 H   0  0  0  0  0  0  0  0  0  0  0  0
   -3.6000   -2.9984   -3.9463 H   0  0  0  0  0  0  0  0  0  0  0  0
   -2.3919   -4.3034   -3.8700 H   0  0  0  0  0  0  0  0  0  0  0  0
   -1.9220   -1.4901   -3.1743 H   0  0  0  0  0  0  0  0  0  0  0  0
  1  2  1  0  0  0  0
  1 27  1  0  0  0  0
  1 28  1  0  0  0  0
  1 29  1  0  0  0  0
  2  3  1  0  0  0  0
  2 30  1  0  0  0  0
  2 31  1  0  0  0  0
  3  4  2  0  0  0  0
  3  5  1  0  0  0  0
  6  5  1  1  0  0  0
  6  7  1  0  0  0  0
  6 14  1  0  0  0  0
  6 20  1  0  0  0  0
  7  8  1  0  0  0  0
  7 32  1  0  0  0  0
  7 33  1  0  0  0  0
  8 13  2  0  0  0  0
  8  9  1  0  0  0  0
  9 10  2  0  0  0  0
  9 34  1  0  0  0  0
 10 11  1  0  0  0  0
 10 35  1  0  0  0  0
 11 12  2  0  0  0  0
 11 36  1  0  0  0  0
 12 13  1  0  0  0  0
 12 37  1  0  0  0  0
 13 38  1  0  0  0  0
 14 19  2  0  0  0  0
 14 15  1  0  0  0  0
 15 16  2  0  0  0  0
 15 39  1  0  0  0  0
 16 17  1  0  0  0  0
 16 40  1  0  0  0  0
 17 18  2  0  0  0  0
 17 41  1  0  0  0  0
 18 19  1  0  0  0  0
 18 42  1  0  0  0  0
 19 43  1  0  0  0  0
 20 21  1  6  0  0  0
 20 22  1  0  0  0  0
 20 23  1  0  0  0  0
 22 44  1  0  0  0  0
 22 45  1  0  0  0  0
 22 46  1  0  0  0  0
 23 24  1  0  0  0  0
 23 47  1  0  0  0  0
 23 48  1  0  0  0  0
 24 25  1  0  0  0  0
 24 26  1  0  0  0  0
 24 55  1  0  0  0  0
 25 49  1  0  0  0  0
 25 50  1  0  0  0  0
 25 51  1  0  0  0  0
 26 52  1  0  0  0  0
 26 53  1  0  0  0  0
 26 54  1  0  0  0  0
M  CHG  1  24   1
M  END
$$$$
