ZINC02020233
 OpenBabel08292219463D

 30 32  0  0  1  0  0  0  0  0999 V2000
   -0.0167    1.3794    0.0096 C   0  0  0  0  0  0  0  0  0  0  0  0
    1.1694    2.0895    0.0021 C   0  0  0  0  0  0  0  0  0  0  0  0
    2.3774    1.4112   -0.0095 C   0  0  0  0  0  0  0  0  0  0  0  0
    2.3932    0.0207   -0.0327 C   0  0  0  0  0  0  0  0  0  0  0  0
    1.2087   -0.6839   -0.0200 C   0  0  0  0  0  0  0  0  0  0  0  0
    0.0021   -0.0041    0.0020 C   0  0  0  0  0  0  0  0  0  0  0  0
   -1.4906   -0.8902    0.0208 Cl  0  0  0  0  0  0  0  0  0  0  0  0
    3.7181   -0.6968   -0.0911 C   0  0  1  0  0  0  0  0  0  0  0  0
    4.7197    0.1214    0.5191 O   0  0  0  0  0  0  0  0  0  0  0  0
    4.7428    1.4259    0.1890 C   0  0  0  0  0  0  0  0  0  0  0  0
    5.8081    1.9978    0.0682 O   0  0  0  0  0  0  0  0  0  0  0  0
    3.5943    2.1036   -0.0087 N   0  0  0  0  0  0  0  0  0  0  0  0
    3.6183   -1.9747    0.6326 C   0  0  0  0  0  0  0  0  0  0  0  0
    3.5386   -2.9939    1.2097 C   0  0  0  0  0  0  0  0  0  0  0  0
    3.4387   -4.2719    1.9334 C   0  0  0  0  0  0  0  0  0  0  0  0
    4.2228   -4.4068    3.2403 C   0  0  0  0  0  0  0  0  0  0  0  0
    4.6888   -5.1523    1.9882 C   0  0  0  0  0  0  0  0  0  0  0  0
    4.0929   -0.9613   -1.5508 C   0  0  0  0  0  0  0  0  0  0  0  0
    4.1917    0.2551   -2.2346 F   0  0  0  0  0  0  0  0  0  0  0  0
    5.3222   -1.6270   -1.6033 F   0  0  0  0  0  0  0  0  0  0  0  0
    3.1074   -1.7539   -2.1490 F   0  0  0  0  0  0  0  0  0  0  0  0
   -0.9597    1.9055    0.0260 H   0  0  0  0  0  0  0  0  0  0  0  0
    1.1544    3.1694    0.0050 H   0  0  0  0  0  0  0  0  0  0  0  0
    1.2213   -1.7638   -0.0270 H   0  0  0  0  0  0  0  0  0  0  0  0
    3.6108    3.0632   -0.1495 H   0  0  0  0  0  0  0  0  0  0  0  0
    2.4726   -4.7728    1.8717 H   0  0  0  0  0  0  0  0  0  0  0  0
    4.8126   -3.5493    3.5642 H   0  0  0  0  0  0  0  0  0  0  0  0
    3.7725   -4.9965    4.0388 H   0  0  0  0  0  0  0  0  0  0  0  0
    4.5451   -6.2325    1.9628 H   0  0  0  0  0  0  0  0  0  0  0  0
    5.5852   -4.7853    1.4883 H   0  0  0  0  0  0  0  0  0  0  0  0
  1  6  2  0  0  0  0
  1  2  1  0  0  0  0
  1 22  1  0  0  0  0
  2  3  2  0  0  0  0
  2 23  1  0  0  0  0
  3 12  1  0  0  0  0
  3  4  1  0  0  0  0
  4  5  2  0  0  0  0
  4  8  1  0  0  0  0
  5  6  1  0  0  0  0
  5 24  1  0  0  0  0
  6  7  1  0  0  0  0
  8  9  1  0  0  0  0
  8 13  1  1  0  0  0
  8 18  1  0  0  0  0
  9 10  1  0  0  0  0
 10 11  2  0  0  0  0
 10 12  1  0  0  0  0
 12 25  1  0  0  0  0
 13 14  3  0  0  0  0
 14 15  1  0  0  0  0
 15 17  1  0  0  0  0
 15 16  1  0  0  0  0
 15 26  1  0  0  0  0
 16 17  1  0  0  0  0
 16 27  1  0  0  0  0
 16 28  1  0  0  0  0
 17 29  1  0  0  0  0
 17 30  1  0  0  0  0
 18 19  1  0  0  0  0
 18 20  1  0  0  0  0
 18 21  1  0  0  0  0
M  END
$$$$
