ZINC00002105
 OpenBabel08292219463D

 28 29  0  0  0  0  0  0  0  0999 V2000
   -0.0167    1.3788    0.0096 C   0  0  0  0  0  0  0  0  0  0  0  0
    1.1946    2.0581    0.0017 C   0  0  0  0  0  0  0  0  0  0  0  0
    2.3728    1.3394   -0.0134 C   0  0  0  0  0  0  0  0  0  0  0  0
    2.3606    0.0197   -0.0204 N   0  0  0  0  0  0  0  0  0  0  0  0
    1.2269   -0.6641   -0.0132 C   0  0  0  0  0  0  0  0  0  0  0  0
    0.0021   -0.0041    0.0020 C   0  0  0  0  0  0  0  0  0  0  0  0
    1.2605   -2.0537   -0.0210 N   0  0  0  0  0  0  0  0  0  0  0  0
    2.7142   -2.8466   -0.0391 S   0  0  0  0  0  0  0  0  0  0  0  0
    2.4190   -4.2364   -0.0167 O   0  0  0  0  0  0  0  0  0  0  0  0
    3.4899   -2.2491   -1.0689 O   0  0  0  0  0  0  0  0  0  0  0  0
    3.5267   -2.4798    1.4807 C   0  0  0  0  0  0  0  0  0  0  0  0
    4.3557   -1.3767    1.5710 C   0  0  0  0  0  0  0  0  0  0  0  0
    4.9941   -1.0863    2.7607 C   0  0  0  0  0  0  0  0  0  0  0  0
    4.8027   -1.9037    3.8674 C   0  0  0  0  0  0  0  0  0  0  0  0
    3.9693   -3.0110    3.7732 C   0  0  0  0  0  0  0  0  0  0  0  0
    3.3295   -3.2925    2.5820 C   0  0  0  0  0  0  0  0  0  0  0  0
    5.4472   -1.6132    5.0720 N   0  0  0  0  0  0  0  0  0  0  0  0
   -0.9522    1.9182    0.0259 H   0  0  0  0  0  0  0  0  0  0  0  0
    1.2145    3.1379    0.0070 H   0  0  0  0  0  0  0  0  0  0  0  0
    3.3170    1.8637   -0.0200 H   0  0  0  0  0  0  0  0  0  0  0  0
   -0.9214   -0.5640    0.0078 H   0  0  0  0  0  0  0  0  0  0  0  0
    0.4325   -2.5589   -0.0158 H   0  0  0  0  0  0  0  0  0  0  0  0
    4.5044   -0.7418    0.7101 H   0  0  0  0  0  0  0  0  0  0  0  0
    5.6417   -0.2248    2.8304 H   0  0  0  0  0  0  0  0  0  0  0  0
    3.8186   -3.6488    4.6316 H   0  0  0  0  0  0  0  0  0  0  0  0
    2.6779   -4.1507    2.5094 H   0  0  0  0  0  0  0  0  0  0  0  0
    6.0292   -0.8399    5.1365 H   0  0  0  0  0  0  0  0  0  0  0  0
    5.3128   -2.1847    5.8441 H   0  0  0  0  0  0  0  0  0  0  0  0
  1  6  2  0  0  0  0
  1  2  1  0  0  0  0
  1 18  1  0  0  0  0
  2  3  2  0  0  0  0
  2 19  1  0  0  0  0
  3  4  1  0  0  0  0
  3 20  1  0  0  0  0
  4  5  2  0  0  0  0
  5  6  1  0  0  0  0
  5  7  1  0  0  0  0
  6 21  1  0  0  0  0
  7  8  1  0  0  0  0
  7 22  1  0  0  0  0
  8  9  2  0  0  0  0
  8 10  2  0  0  0  0
  8 11  1  0  0  0  0
 11 16  2  0  0  0  0
 11 12  1  0  0  0  0
 12 13  2  0  0  0  0
 12 23  1  0  0  0  0
 13 14  1  0  0  0  0
 13 24  1  0  0  0  0
 14 15  2  0  0  0  0
 14 17  1  0  0  0  0
 15 16  1  0  0  0  0
 15 25  1  0  0  0  0
 16 26  1  0  0  0  0
 17 27  1  0  0  0  0
 17 28  1  0  0  0  0
M  END
$$$$
