ZINC00049153
 OpenBabel08292219463D

 35 36  0  0  0  0  0  0  0  0999 V2000
    0.0612    1.5261    0.0180 C   0  0  0  0  0  0  0  0  0  0  0  0
    0.1731    0.0235   -0.0084 C   0  0  0  0  0  0  0  0  0  0  0  0
    0.2013   -0.6658   -1.1777 C   0  0  0  0  0  0  0  0  0  0  0  0
    0.3393   -2.3392   -0.5700 S   0  0  0  0  0  0  0  0  0  0  0  0
    0.3461   -1.9874    1.0759 C   0  0  0  0  0  0  0  0  0  0  0  0
    0.2536   -0.6812    1.1026 N   0  0  0  0  0  4  0  0  0  0  0  0
    0.2335    0.0104    2.3939 C   0  0  0  0  0  0  0  0  0  0  0  0
    0.4731   -0.9844    3.5003 C   0  0  0  0  0  0  0  0  0  0  0  0
   -0.5850   -1.5588    4.1772 C   0  0  0  0  0  0  0  0  0  0  0  0
   -0.3371   -2.4299    5.1450 N   0  0  0  0  0  0  0  0  0  0  0  0
    0.8993   -2.7529    5.4674 C   0  0  0  0  0  0  0  0  0  0  0  0
    1.9381   -2.2294    4.8489 N   0  0  0  0  0  0  0  0  0  0  0  0
    1.7701   -1.3528    3.8629 C   0  0  0  0  0  0  0  0  0  0  0  0
    2.8646   -0.8091    3.2104 N   0  0  0  0  0  0  0  0  0  0  0  0
    1.1312   -3.7483    6.5749 C   0  0  0  0  0  0  0  0  0  0  0  0
    0.1347   -0.1592   -2.5954 C   0  0  0  0  0  0  0  0  0  0  0  0
    1.5503    0.1203   -3.1042 C   0  0  0  0  0  0  0  0  0  0  0  0
    1.4871    0.6007   -4.4485 O   0  0  0  0  0  0  0  0  0  0  0  0
    1.0569    1.9633    0.0927 H   0  0  0  0  0  0  0  0  0  0  0  0
   -0.4192    1.8708   -0.8977 H   0  0  0  0  0  0  0  0  0  0  0  0
   -0.5349    1.8310    0.8780 H   0  0  0  0  0  0  0  0  0  0  0  0
    0.4143   -2.6723    1.9082 H   0  0  0  0  0  0  0  0  0  0  0  0
    1.0158    0.7692    2.4119 H   0  0  0  0  0  0  0  0  0  0  0  0
   -0.7370    0.4856    2.5365 H   0  0  0  0  0  0  0  0  0  0  0  0
   -1.6021   -1.3009    3.9213 H   0  0  0  0  0  0  0  0  0  0  0  0
    2.7333   -0.1671    2.4953 H   0  0  0  0  0  0  0  0  0  0  0  0
    3.7623   -1.0706    3.4686 H   0  0  0  0  0  0  0  0  0  0  0  0
    1.1654   -4.7547    6.1576 H   0  0  0  0  0  0  0  0  0  0  0  0
    2.0772   -3.5277    7.0694 H   0  0  0  0  0  0  0  0  0  0  0  0
    0.3188   -3.6825    7.2986 H   0  0  0  0  0  0  0  0  0  0  0  0
   -0.3369   -0.9111   -3.2281 H   0  0  0  0  0  0  0  0  0  0  0  0
   -0.4504    0.7600   -2.6257 H   0  0  0  0  0  0  0  0  0  0  0  0
    2.0219    0.8722   -2.4715 H   0  0  0  0  0  0  0  0  0  0  0  0
    2.1354   -0.7988   -3.0739 H   0  0  0  0  0  0  0  0  0  0  0  0
    2.3505    0.7991   -4.8363 H   0  0  0  0  0  0  0  0  0  0  0  0
  1  2  1  0  0  0  0
  1 19  1  0  0  0  0
  1 20  1  0  0  0  0
  1 21  1  0  0  0  0
  2  6  1  0  0  0  0
  2  3  2  0  0  0  0
  3  4  1  0  0  0  0
  3 16  1  0  0  0  0
  4  5  1  0  0  0  0
  5  6  2  0  0  0  0
  5 22  1  0  0  0  0
  6  7  1  0  0  0  0
  7  8  1  0  0  0  0
  7 23  1  0  0  0  0
  7 24  1  0  0  0  0
  8 13  2  0  0  0  0
  8  9  1  0  0  0  0
  9 10  2  0  0  0  0
  9 25  1  0  0  0  0
 10 11  1  0  0  0  0
 11 12  2  0  0  0  0
 11 15  1  0  0  0  0
 12 13  1  0  0  0  0
 13 14  1  0  0  0  0
 14 26  1  0  0  0  0
 14 27  1  0  0  0  0
 15 28  1  0  0  0  0
 15 29  1  0  0  0  0
 15 30  1  0  0  0  0
 16 17  1  0  0  0  0
 16 31  1  0  0  0  0
 16 32  1  0  0  0  0
 17 18  1  0  0  0  0
 17 33  1  0  0  0  0
 17 34  1  0  0  0  0
 18 35  1  0  0  0  0
M  END
$$$$
