ZINC01530611
 OpenBabel08292219463D

 43 45  0  0  0  0  0  0  0  0999 V2000
   -5.6811    1.3607   -0.3895 C   0  0  0  0  0  0  0  0  0  0  0  0
   -5.6577   -0.0983   -0.2206 N   0  3  0  0  0  0  0  0  0  0  0  0
   -4.2653   -0.5656   -0.1914 C   0  0  0  0  0  0  0  0  0  0  0  0
   -4.2409   -2.0853   -0.0155 C   0  0  0  0  0  0  0  0  0  0  0  0
   -2.7907   -2.5720    0.0149 C   0  0  0  0  0  0  0  0  0  0  0  0
   -2.7680   -4.0325    0.1272 N   0  0  0  0  0  0  0  0  0  0  0  0
   -2.6913   -4.8424   -1.0108 C   0  0  0  0  0  0  0  0  0  0  0  0
   -1.6220   -4.6466   -1.8788 C   0  0  0  0  0  0  0  0  0  0  0  0
   -1.4736   -5.4397   -2.9971 C   0  0  0  0  0  0  0  0  0  0  0  0
   -2.4002   -6.4363   -3.2444 C   0  0  0  0  0  0  0  0  0  0  0  0
   -3.4660   -6.6200   -2.3938 C   0  0  0  0  0  0  0  0  0  0  0  0
   -3.6460   -5.8156   -1.2664 C   0  0  0  0  0  0  0  0  0  0  0  0
   -4.9119   -6.0915   -0.4880 C   0  0  0  0  0  0  0  0  0  0  0  0
   -5.1138   -5.1475    0.6844 C   0  0  0  0  0  0  0  0  0  0  0  0
   -4.0023   -5.2798    1.6948 C   0  0  0  0  0  0  0  0  0  0  0  0
   -2.8165   -4.6605    1.3756 C   0  0  0  0  0  0  0  0  0  0  0  0
   -1.7436   -4.6795    2.2507 C   0  0  0  0  0  0  0  0  0  0  0  0
   -1.8773   -5.3599    3.4502 C   0  0  0  0  0  0  0  0  0  0  0  0
   -3.0600   -6.0057    3.7614 C   0  0  0  0  0  0  0  0  0  0  0  0
   -4.1454   -5.9689    2.8764 C   0  0  0  0  0  0  0  0  0  0  0  0
   -6.7143    1.7075   -0.4111 H   0  0  0  0  0  0  0  0  0  0  0  0
   -5.1573    1.8313    0.4426 H   0  0  0  0  0  0  0  0  0  0  0  0
   -5.1891    1.6261   -1.3252 H   0  0  0  0  0  0  0  0  0  0  0  0
   -6.1131   -0.3440    0.6456 H   0  0  0  0  0  0  0  0  0  0  0  0
   -3.7733   -0.3002   -1.1272 H   0  0  0  0  0  0  0  0  0  0  0  0
   -3.7415   -0.0951    0.6406 H   0  0  0  0  0  0  0  0  0  0  0  0
   -4.7329   -2.3506    0.9203 H   0  0  0  0  0  0  0  0  0  0  0  0
   -4.7647   -2.5558   -0.8475 H   0  0  0  0  0  0  0  0  0  0  0  0
   -2.2869   -2.2703   -0.9034 H   0  0  0  0  0  0  0  0  0  0  0  0
   -2.2782   -2.1337    0.8713 H   0  0  0  0  0  0  0  0  0  0  0  0
   -0.9026   -3.8672   -1.6754 H   0  0  0  0  0  0  0  0  0  0  0  0
   -0.6444   -5.2844   -3.6715 H   0  0  0  0  0  0  0  0  0  0  0  0
   -2.2869   -7.0730   -4.1093 H   0  0  0  0  0  0  0  0  0  0  0  0
   -4.1790   -7.4039   -2.6024 H   0  0  0  0  0  0  0  0  0  0  0  0
   -5.7638   -5.9997   -1.1617 H   0  0  0  0  0  0  0  0  0  0  0  0
   -4.8754   -7.1138   -0.1117 H   0  0  0  0  0  0  0  0  0  0  0  0
   -5.1407   -4.1220    0.3160 H   0  0  0  0  0  0  0  0  0  0  0  0
   -6.0638   -5.3767    1.1673 H   0  0  0  0  0  0  0  0  0  0  0  0
   -0.8216   -4.1746    2.0032 H   0  0  0  0  0  0  0  0  0  0  0  0
   -1.0526   -5.3858    4.1470 H   0  0  0  0  0  0  0  0  0  0  0  0
   -3.1485   -6.5434    4.6939 H   0  0  0  0  0  0  0  0  0  0  0  0
   -5.0720   -6.4709    3.1123 H   0  0  0  0  0  0  0  0  0  0  0  0
   -6.1426   -0.5339   -0.9908 H   0  0  0  0  0  0  0  0  0  0  0  0
  1  2  1  0  0  0  0
  1 21  1  0  0  0  0
  1 22  1  0  0  0  0
  1 23  1  0  0  0  0
  2  3  1  0  0  0  0
  2 24  1  0  0  0  0
  2 43  1  0  0  0  0
  3  4  1  0  0  0  0
  3 25  1  0  0  0  0
  3 26  1  0  0  0  0
  4  5  1  0  0  0  0
  4 27  1  0  0  0  0
  4 28  1  0  0  0  0
  5  6  1  0  0  0  0
  5 29  1  0  0  0  0
  5 30  1  0  0  0  0
  6 16  1  0  0  0  0
  6  7  1  0  0  0  0
  7 12  2  0  0  0  0
  7  8  1  0  0  0  0
  8  9  2  0  0  0  0
  8 31  1  0  0  0  0
  9 10  1  0  0  0  0
  9 32  1  0  0  0  0
 10 11  2  0  0  0  0
 10 33  1  0  0  0  0
 11 12  1  0  0  0  0
 11 34  1  0  0  0  0
 12 13  1  0  0  0  0
 13 14  1  0  0  0  0
 13 35  1  0  0  0  0
 13 36  1  0  0  0  0
 14 15  1  0  0  0  0
 14 37  1  0  0  0  0
 14 38  1  0  0  0  0
 15 20  2  0  0  0  0
 15 16  1  0  0  0  0
 16 17  2  0  0  0  0
 17 18  1  0  0  0  0
 17 39  1  0  0  0  0
 18 19  2  0  0  0  0
 18 40  1  0  0  0  0
 19 20  1  0  0  0  0
 19 41  1  0  0  0  0
 20 42  1  0  0  0  0
M  CHG  1   2   1
M  END
$$$$
