ZINC03830280
 OpenBabel08292219463D

 62 64  0  0  1  0  0  0  0  0999 V2000
   -0.1465    3.8402    2.8922 C   0  0  0  0  0  0  0  0  0  0  0  0
   -0.5653    2.4335    2.4603 C   0  0  0  0  0  0  0  0  0  0  0  0
   -0.7796    2.4110    1.0112 N   0  0  0  0  0  0  0  0  0  0  0  0
    0.3413    2.1348    0.1092 C   0  0  0  0  0  0  0  0  0  0  0  0
    0.5573    0.6232    0.0122 C   0  0  0  0  0  0  0  0  0  0  0  0
   -2.0079    2.6444    0.5079 C   0  0  0  0  0  0  0  0  0  0  0  0
   -2.9564    2.7638    1.2543 O   0  0  0  0  0  0  0  0  0  0  0  0
   -2.2027    2.7570   -0.9822 C   0  0  1  0  0  0  0  0  0  0  0  0
   -1.3296    3.2335   -1.4280 H   0  0  0  0  0  0  0  0  0  0  0  0
   -2.3835    1.3595   -1.5806 C   0  0  0  0  0  0  0  0  0  0  0  0
   -2.6440    0.1535   -3.6703 C   0  0  0  0  0  0  0  0  0  0  0  0
   -2.4902    0.3405   -5.1800 C   0  0  0  0  0  0  0  0  0  0  0  0
   -3.4552    1.3885   -5.6727 C   0  0  0  0  0  0  0  0  0  0  0  0
   -3.7196    1.4540   -7.0330 C   0  0  0  0  0  0  0  0  0  0  0  0
   -4.5954    2.4018   -7.5311 C   0  0  0  0  0  0  0  0  0  0  0  0
   -5.2132    3.2945   -6.6599 C   0  0  0  0  0  0  0  0  0  0  0  0
   -4.9473    3.2244   -5.3045 C   0  0  0  0  0  0  0  0  0  0  0  0
   -4.0447    2.2697   -4.8129 C   0  0  0  0  0  0  0  0  0  0  0  0
   -3.8164    2.2323   -3.3258 C   0  0  2  0  0  0  0  0  0  0  0  0
   -4.6663    1.7479   -2.8449 H   0  0  0  0  0  0  0  0  0  0  0  0
   -3.6778    3.6572   -2.7854 C   0  0  0  0  0  0  0  0  0  0  0  0
   -3.4479    3.5991   -1.2722 C   0  0  2  0  0  0  0  0  0  0  0  0
   -4.3140    3.1462   -0.7896 H   0  0  0  0  0  0  0  0  0  0  0  0
   -3.2545    4.9434   -0.7584 O   0  0  0  0  0  0  0  0  0  0  0  0
   -4.3507    5.6057   -0.3566 C   0  0  0  0  0  0  0  0  0  0  0  0
   -5.4358    5.0797   -0.4316 O   0  0  0  0  0  0  0  0  0  0  0  0
   -4.2278    7.0055    0.1881 C   0  0  0  0  0  0  0  0  0  0  0  0
   -6.0742    4.2316   -7.1394 O   0  0  0  0  0  0  0  0  0  0  0  0
   -6.6703    5.1133   -6.1859 C   0  0  0  0  0  0  0  0  0  0  0  0
   -4.8511    2.4615   -8.8654 O   0  0  0  0  0  0  0  0  0  0  0  0
   -4.1799    1.5135   -9.6977 C   0  0  0  0  0  0  0  0  0  0  0  0
    0.8046    4.0957    2.4249 H   0  0  0  0  0  0  0  0  0  0  0  0
   -0.9073    4.5569    2.5829 H   0  0  0  0  0  0  0  0  0  0  0  0
   -0.0383    3.8704    3.9764 H   0  0  0  0  0  0  0  0  0  0  0  0
    0.2196    1.7241    2.7226 H   0  0  0  0  0  0  0  0  0  0  0  0
   -1.4892    2.1574    2.9685 H   0  0  0  0  0  0  0  0  0  0  0  0
    0.1184    2.5342   -0.8802 H   0  0  0  0  0  0  0  0  0  0  0  0
    1.2442    2.6067    0.4966 H   0  0  0  0  0  0  0  0  0  0  0  0
    0.9379    0.2489    0.9626 H   0  0  0  0  0  0  0  0  0  0  0  0
   -0.3897    0.1349   -0.2177 H   0  0  0  0  0  0  0  0  0  0  0  0
    1.2776    0.4091   -0.7773 H   0  0  0  0  0  0  0  0  0  0  0  0
   -1.4899    0.7646   -1.3917 H   0  0  0  0  0  0  0  0  0  0  0  0
   -3.2462    0.8763   -1.1220 H   0  0  0  0  0  0  0  0  0  0  0  0
   -1.8295   -0.4650   -3.2932 H   0  0  0  0  0  0  0  0  0  0  0  0
   -3.5997   -0.3248   -3.4562 H   0  0  0  0  0  0  0  0  0  0  0  0
   -1.4706    0.6545   -5.4034 H   0  0  0  0  0  0  0  0  0  0  0  0
   -2.6942   -0.6042   -5.6839 H   0  0  0  0  0  0  0  0  0  0  0  0
   -3.2390    0.7606   -7.7072 H   0  0  0  0  0  0  0  0  0  0  0  0
   -5.4262    3.9161   -4.6273 H   0  0  0  0  0  0  0  0  0  0  0  0
   -4.5897    4.2165   -2.9943 H   0  0  0  0  0  0  0  0  0  0  0  0
   -2.8303    4.1477   -3.2642 H   0  0  0  0  0  0  0  0  0  0  0  0
   -4.3165    7.7222   -0.6283 H   0  0  0  0  0  0  0  0  0  0  0  0
   -5.0202    7.1832    0.9153 H   0  0  0  0  0  0  0  0  0  0  0  0
   -3.2580    7.1235    0.6714 H   0  0  0  0  0  0  0  0  0  0  0  0
   -7.3337    5.8092   -6.6996 H   0  0  0  0  0  0  0  0  0  0  0  0
   -7.2427    4.5328   -5.4624 H   0  0  0  0  0  0  0  0  0  0  0  0
   -5.8894    5.6706   -5.6684 H   0  0  0  0  0  0  0  0  0  0  0  0
   -3.1020    1.6431   -9.6000 H   0  0  0  0  0  0  0  0  0  0  0  0
   -4.4536    0.5037   -9.3919 H   0  0  0  0  0  0  0  0  0  0  0  0
   -4.4721    1.6704  -10.7360 H   0  0  0  0  0  0  0  0  0  0  0  0
   -2.5769    1.4897   -3.0426 N   0  3  1  0  0  0  0  0  0  0  0  0
   -1.7814    2.0045   -3.4381 H   0  0  0  0  0  0  0  0  0  0  0  0
  1  2  1  0  0  0  0
  1 32  1  0  0  0  0
  1 33  1  0  0  0  0
  1 34  1  0  0  0  0
  2  3  1  0  0  0  0
  2 35  1  0  0  0  0
  2 36  1  0  0  0  0
  3  4  1  0  0  0  0
  3  6  1  0  0  0  0
  4  5  1  0  0  0  0
  4 37  1  0  0  0  0
  4 38  1  0  0  0  0
  5 39  1  0  0  0  0
  5 40  1  0  0  0  0
  5 41  1  0  0  0  0
  6  7  2  0  0  0  0
  6  8  1  0  0  0  0
  8  9  1  6  0  0  0
  8 22  1  0  0  0  0
  8 10  1  0  0  0  0
 10 42  1  0  0  0  0
 10 43  1  0  0  0  0
 10 61  1  0  0  0  0
 11 12  1  0  0  0  0
 11 44  1  0  0  0  0
 11 45  1  0  0  0  0
 11 61  1  0  0  0  0
 12 13  1  0  0  0  0
 12 46  1  0  0  0  0
 12 47  1  0  0  0  0
 13 18  2  0  0  0  0
 13 14  1  0  0  0  0
 14 15  2  0  0  0  0
 14 48  1  0  0  0  0
 15 16  1  0  0  0  0
 15 30  1  0  0  0  0
 16 17  2  0  0  0  0
 16 28  1  0  0  0  0
 17 18  1  0  0  0  0
 17 49  1  0  0  0  0
 18 19  1  0  0  0  0
 19 20  1  1  0  0  0
 19 21  1  0  0  0  0
 19 61  1  0  0  0  0
 21 22  1  0  0  0  0
 21 50  1  0  0  0  0
 21 51  1  0  0  0  0
 22 23  1  1  0  0  0
 22 24  1  0  0  0  0
 24 25  1  0  0  0  0
 25 26  2  0  0  0  0
 25 27  1  0  0  0  0
 27 52  1  0  0  0  0
 27 53  1  0  0  0  0
 27 54  1  0  0  0  0
 28 29  1  0  0  0  0
 29 55  1  0  0  0  0
 29 56  1  0  0  0  0
 29 57  1  0  0  0  0
 30 31  1  0  0  0  0
 31 58  1  0  0  0  0
 31 59  1  0  0  0  0
 31 60  1  0  0  0  0
 61 62  1  6  0  0  0
M  CHG  1  61   1
M  END
$$$$
