ZINC00000199
 OpenBabel08292219463D

 51 53  0  0  1  0  0  0  0  0999 V2000
    1.2859    5.9002   -0.2805 C   0  0  0  0  0  0  0  0  0  0  0  0
    1.3895    5.2910    0.9560 C   0  0  0  0  0  0  0  0  0  0  0  0
    1.4307    3.9122    1.0460 C   0  0  0  0  0  0  0  0  0  0  0  0
    1.3682    3.1426   -0.1006 C   0  0  0  0  0  0  0  0  0  0  0  0
    1.2698    3.7519   -1.3375 C   0  0  0  0  0  0  0  0  0  0  0  0
    1.2234    5.1306   -1.4271 C   0  0  0  0  0  0  0  0  0  0  0  0
    1.4136    1.6395   -0.0026 C   0  0  1  0  0  0  0  0  0  0  0  0
    2.3372    1.2309    1.1467 C   0  0  0  0  0  0  0  0  0  0  0  0
    2.3832   -0.2951    1.2462 C   0  0  0  0  0  0  0  0  0  0  0  0
    4.6604   -0.3083    2.0677 C   0  0  0  0  0  0  0  0  0  0  0  0
    5.5285   -0.5988    3.2941 C   0  0  0  0  0  0  0  0  0  0  0  0
    5.4447   -2.0901    3.6309 C   0  0  0  0  0  0  0  0  0  0  0  0
    3.9811   -2.4693    3.8727 C   0  0  0  0  0  0  0  0  0  0  0  0
    3.1578   -2.1245    2.6296 C   0  0  0  0  0  0  0  0  0  0  0  0
    0.0050    1.1028    0.2596 C   0  0  0  0  0  0  0  0  0  0  0  0
   -0.5704    1.7056    1.5652 C   0  0  0  0  0  0  0  0  0  0  0  0
   -2.1024    1.5701    1.3539 C   0  0  0  0  0  0  0  0  0  0  0  0
   -2.3069    1.8744   -0.1446 C   0  0  0  0  0  0  0  0  0  0  0  0
   -0.9670    1.5772   -0.8403 C   0  0  0  0  0  0  0  0  0  0  0  0
    1.9095    1.0969   -1.2281 O   0  0  0  0  0  0  0  0  0  0  0  0
    1.2541    6.9774   -0.3508 H   0  0  0  0  0  0  0  0  0  0  0  0
    1.4387    5.8923    1.8518 H   0  0  0  0  0  0  0  0  0  0  0  0
    1.5121    3.4362    2.0120 H   0  0  0  0  0  0  0  0  0  0  0  0
    1.2255    3.1507   -2.2337 H   0  0  0  0  0  0  0  0  0  0  0  0
    1.1428    5.6065   -2.3932 H   0  0  0  0  0  0  0  0  0  0  0  0
    3.3407    1.6133    0.9599 H   0  0  0  0  0  0  0  0  0  0  0  0
    1.9589    1.6448    2.0814 H   0  0  0  0  0  0  0  0  0  0  0  0
    1.3797   -0.6775    1.4330 H   0  0  0  0  0  0  0  0  0  0  0  0
    2.7615   -0.7089    0.3115 H   0  0  0  0  0  0  0  0  0  0  0  0
    5.0283   -0.8831    1.2178 H   0  0  0  0  0  0  0  0  0  0  0  0
    4.7065    0.7553    1.8338 H   0  0  0  0  0  0  0  0  0  0  0  0
    5.1696   -0.0137    4.1408 H   0  0  0  0  0  0  0  0  0  0  0  0
    6.5633   -0.3317    3.0797 H   0  0  0  0  0  0  0  0  0  0  0  0
    6.0270   -2.2938    4.5295 H   0  0  0  0  0  0  0  0  0  0  0  0
    5.8401   -2.6749    2.8004 H   0  0  0  0  0  0  0  0  0  0  0  0
    3.5978   -1.9136    4.7286 H   0  0  0  0  0  0  0  0  0  0  0  0
    3.9102   -3.5387    4.0711 H   0  0  0  0  0  0  0  0  0  0  0  0
    2.1126   -2.3801    2.8038 H   0  0  0  0  0  0  0  0  0  0  0  0
    3.5329   -2.6909    1.7772 H   0  0  0  0  0  0  0  0  0  0  0  0
    0.0167    0.0142    0.3148 H   0  0  0  0  0  0  0  0  0  0  0  0
   -0.2452    1.1307    2.4323 H   0  0  0  0  0  0  0  0  0  0  0  0
   -0.2853    2.7528    1.6656 H   0  0  0  0  0  0  0  0  0  0  0  0
   -2.6373    2.2955    1.9669 H   0  0  0  0  0  0  0  0  0  0  0  0
   -2.4332    0.5579    1.5863 H   0  0  0  0  0  0  0  0  0  0  0  0
   -2.5734    2.9226   -0.2798 H   0  0  0  0  0  0  0  0  0  0  0  0
   -3.0893    1.2342   -0.5521 H   0  0  0  0  0  0  0  0  0  0  0  0
   -0.5833    2.4812   -1.3132 H   0  0  0  0  0  0  0  0  0  0  0  0
   -1.0992    0.7928   -1.5856 H   0  0  0  0  0  0  0  0  0  0  0  0
    2.8002    1.3949   -1.4582 H   0  0  0  0  0  0  0  0  0  0  0  0
    3.2606   -0.6720    2.3737 N   0  3  0  0  0  0  0  0  0  0  0  0
    2.9606   -0.1637    3.2139 H   0  0  0  0  0  0  0  0  0  0  0  0
  1  6  2  0  0  0  0
  1  2  1  0  0  0  0
  1 21  1  0  0  0  0
  2  3  2  0  0  0  0
  2 22  1  0  0  0  0
  3  4  1  0  0  0  0
  3 23  1  0  0  0  0
  4  5  2  0  0  0  0
  4  7  1  0  0  0  0
  5  6  1  0  0  0  0
  5 24  1  0  0  0  0
  6 25  1  0  0  0  0
  7  8  1  0  0  0  0
  7 15  1  0  0  0  0
  7 20  1  6  0  0  0
  8  9  1  0  0  0  0
  8 26  1  0  0  0  0
  8 27  1  0  0  0  0
  9 28  1  0  0  0  0
  9 29  1  0  0  0  0
  9 50  1  0  0  0  0
 10 11  1  0  0  0  0
 10 30  1  0  0  0  0
 10 31  1  0  0  0  0
 10 50  1  0  0  0  0
 11 12  1  0  0  0  0
 11 32  1  0  0  0  0
 11 33  1  0  0  0  0
 12 13  1  0  0  0  0
 12 34  1  0  0  0  0
 12 35  1  0  0  0  0
 13 14  1  0  0  0  0
 13 36  1  0  0  0  0
 13 37  1  0  0  0  0
 14 38  1  0  0  0  0
 14 39  1  0  0  0  0
 14 50  1  0  0  0  0
 15 19  1  0  0  0  0
 15 16  1  0  0  0  0
 15 40  1  0  0  0  0
 16 17  1  0  0  0  0
 16 41  1  0  0  0  0
 16 42  1  0  0  0  0
 17 18  1  0  0  0  0
 17 43  1  0  0  0  0
 17 44  1  0  0  0  0
 18 19  1  0  0  0  0
 18 45  1  0  0  0  0
 18 46  1  0  0  0  0
 19 47  1  0  0  0  0
 19 48  1  0  0  0  0
 20 49  1  0  0  0  0
 50 51  1  0  0  0  0
M  CHG  1  50   1
M  END
$$$$
