ZINC01530855
 OpenBabel08292219463D

 33 34  0  0  1  0  0  0  0  0999 V2000
    0.7065   -0.4906    1.2416 C   0  0  0  0  0  0  0  0  0  0  0  0
   -0.0063    0.0218   -0.0115 C   0  0  0  0  0  0  0  0  0  0  0  0
    0.7857   -0.3913   -1.2537 C   0  0  1  0  0  0  0  0  0  0  0  0
    0.8014   -1.9195   -1.3662 C   0  0  0  0  0  0  0  0  0  0  0  0
   -0.6343   -2.4072   -1.5886 C   0  0  0  0  0  0  0  0  0  0  0  0
   -1.2085   -1.7182   -2.7983 C   0  0  0  0  0  0  0  0  0  0  0  0
   -2.0536   -2.2831   -3.4588 O   0  0  0  0  0  0  0  0  0  0  0  0
   -0.8032   -0.4913   -3.1589 N   0  0  0  0  0  0  0  0  0  0  0  0
    0.1344    0.1880   -2.4816 C   0  0  0  0  0  0  0  0  0  0  0  0
    0.4637    1.2898   -2.8654 O   0  0  0  0  0  0  0  0  0  0  0  0
    2.1986    0.1213   -1.1437 C   0  0  0  0  0  0  0  0  0  0  0  0
    3.2620   -0.7510   -1.2867 C   0  0  0  0  0  0  0  0  0  0  0  0
    4.5581   -0.2845   -1.1864 C   0  0  0  0  0  0  0  0  0  0  0  0
    4.7927    1.0626   -0.9417 C   0  0  0  0  0  0  0  0  0  0  0  0
    3.7221    1.9361   -0.7986 C   0  0  0  0  0  0  0  0  0  0  0  0
    2.4287    1.4639   -0.9056 C   0  0  0  0  0  0  0  0  0  0  0  0
    6.1022    1.5376   -0.8393 N   0  0  0  0  0  0  0  0  0  0  0  0
    0.6986   -1.5806    1.2439 H   0  0  0  0  0  0  0  0  0  0  0  0
    1.7367   -0.1347    1.2447 H   0  0  0  0  0  0  0  0  0  0  0  0
    0.1919   -0.1217    2.1288 H   0  0  0  0  0  0  0  0  0  0  0  0
   -1.0077   -0.4057   -0.0604 H   0  0  0  0  0  0  0  0  0  0  0  0
   -0.0768    1.1088    0.0295 H   0  0  0  0  0  0  0  0  0  0  0  0
    1.4241   -2.2181   -2.2095 H   0  0  0  0  0  0  0  0  0  0  0  0
    1.1957   -2.3503   -0.4459 H   0  0  0  0  0  0  0  0  0  0  0  0
   -0.6319   -3.4851   -1.7503 H   0  0  0  0  0  0  0  0  0  0  0  0
   -1.2391   -2.1705   -0.7133 H   0  0  0  0  0  0  0  0  0  0  0  0
   -1.2040   -0.0792   -3.9403 H   0  0  0  0  0  0  0  0  0  0  0  0
    3.0789   -1.7983   -1.4766 H   0  0  0  0  0  0  0  0  0  0  0  0
    5.3882   -0.9664   -1.2978 H   0  0  0  0  0  0  0  0  0  0  0  0
    3.9011    2.9839   -0.6079 H   0  0  0  0  0  0  0  0  0  0  0  0
    1.5960    2.1433   -0.7988 H   0  0  0  0  0  0  0  0  0  0  0  0
    6.8490    0.9266   -0.9391 H   0  0  0  0  0  0  0  0  0  0  0  0
    6.2648    2.4785   -0.6683 H   0  0  0  0  0  0  0  0  0  0  0  0
  1  2  1  0  0  0  0
  1 18  1  0  0  0  0
  1 19  1  0  0  0  0
  1 20  1  0  0  0  0
  2 21  1  0  0  0  0
  2 22  1  0  0  0  0
  3  2  1  1  0  0  0
  3  9  1  0  0  0  0
  3  4  1  0  0  0  0
  3 11  1  0  0  0  0
  4  5  1  0  0  0  0
  4 23  1  0  0  0  0
  4 24  1  0  0  0  0
  5  6  1  0  0  0  0
  5 25  1  0  0  0  0
  5 26  1  0  0  0  0
  6  7  2  0  0  0  0
  6  8  1  0  0  0  0
  8  9  1  0  0  0  0
  8 27  1  0  0  0  0
  9 10  2  0  0  0  0
 11 16  2  0  0  0  0
 11 12  1  0  0  0  0
 12 13  2  0  0  0  0
 12 28  1  0  0  0  0
 13 14  1  0  0  0  0
 13 29  1  0  0  0  0
 14 15  2  0  0  0  0
 14 17  1  0  0  0  0
 15 16  1  0  0  0  0
 15 30  1  0  0  0  0
 16 31  1  0  0  0  0
 17 32  1  0  0  0  0
 17 33  1  0  0  0  0
M  END
$$$$
