ZINC36388592
 OpenBabel08292219463D

 64 67  0  0  1  0  0  0  0  0999 V2000
    1.6766   -3.0857    2.0701 C   0  0  0  0  0  0  0  0  0  0  0  0
    0.7817   -2.4485    1.0052 C   0  0  0  0  0  0  0  0  0  0  0  0
    1.4975   -2.4532   -0.3209 C   0  0  0  0  0  0  0  0  0  0  0  0
    2.6094   -2.9185   -0.4056 O   0  0  0  0  0  0  0  0  0  0  0  0
    0.9000   -1.9404   -1.4080 O   0  0  0  0  0  0  0  0  0  0  0  0
    1.5801   -2.0950   -2.6564 C   0  0  2  0  0  0  0  0  0  0  0  0
    0.7514   -1.4466   -3.7976 C   0  0  2  0  0  0  0  0  0  0  0  0
   -0.2322   -1.1604   -3.4265 H   0  0  0  0  0  0  0  0  0  0  0  0
    0.6133   -2.5203   -4.9104 C   0  0  0  0  0  0  0  0  0  0  0  0
    1.7359   -3.5160   -4.5758 C   0  0  1  0  0  0  0  0  0  0  0  0
    2.6895   -3.0808   -4.8892 H   0  0  0  0  0  0  0  0  0  0  0  0
    1.6440   -3.5766   -3.0337 C   0  0  1  0  0  0  0  0  0  0  0  0
    2.8008   -4.3906   -2.5149 C   0  0  0  0  0  0  0  0  0  0  0  0
    2.7991   -5.7861   -3.1431 C   0  0  1  0  0  0  0  0  0  0  0  0
    1.9239   -6.3351   -2.7379 H   0  0  0  0  0  0  0  0  0  0  0  0
    2.6826   -5.8346   -4.6622 C   0  0  1  0  0  0  0  0  0  0  0  0
    1.5763   -4.8995   -5.1505 C   0  0  2  0  0  0  0  0  0  0  0  0
    0.6122   -5.3210   -4.8066 H   0  0  0  0  0  0  0  0  0  0  0  0
    1.4689   -4.8414   -6.6727 C   0  0  0  0  0  0  0  0  0  0  0  0
    2.8042   -4.3466   -7.2413 C   0  0  1  0  0  0  0  0  0  0  0  0
    3.0686   -3.3880   -6.8084 H   0  0  0  0  0  0  0  0  0  0  0  0
    3.8190   -5.4081   -6.8553 C   0  0  0  0  0  0  0  0  0  0  0  0
    4.4924   -5.9986   -7.8315 C   0  0  0  0  0  0  0  0  0  0  0  0
    5.4594   -7.0662   -7.5360 C   0  0  0  0  0  0  0  0  0  0  0  0
    6.1758   -7.5267   -8.4012 O   0  0  0  0  0  0  0  0  0  0  0  0
    5.5132   -7.5665   -6.1530 C   0  0  0  0  0  0  0  0  0  0  0  0
    4.8342   -6.9511   -5.1999 C   0  0  0  0  0  0  0  0  0  0  0  0
    4.0068   -5.7130   -5.3934 C   0  0  2  0  0  0  0  0  0  0  0  0
    4.8475   -4.5650   -4.8284 C   0  0  0  0  0  0  0  0  0  0  0  0
    2.7192   -4.2451   -8.6322 F   0  0  0  0  0  0  0  0  0  0  0  0
    2.2099   -7.1554   -4.9555 F   0  0  0  0  0  0  0  0  0  0  0  0
    3.9448   -6.4994   -2.6747 O   0  0  0  0  0  0  0  0  0  0  0  0
    0.3250   -4.2190   -2.5797 C   0  0  0  0  0  0  0  0  0  0  0  0
    1.4839   -0.2173   -4.3397 C   0  0  0  0  0  0  0  0  0  0  0  0
    2.9458   -1.4732   -2.5887 C   0  0  0  0  0  0  0  0  0  0  0  0
    3.8541   -1.9394   -3.2337 O   0  0  0  0  0  0  0  0  0  0  0  0
    3.1825   -0.2678   -1.7158 C   0  0  0  0  0  0  0  0  0  0  0  0
    4.9339    0.1595   -1.7432 Cl  0  0  0  0  0  0  0  0  0  0  0  0
    1.9062   -4.1124    1.7848 H   0  0  0  0  0  0  0  0  0  0  0  0
    2.6022   -2.5165    2.1548 H   0  0  0  0  0  0  0  0  0  0  0  0
    1.1588   -3.0823    3.0292 H   0  0  0  0  0  0  0  0  0  0  0  0
   -0.1440   -3.0177    0.9204 H   0  0  0  0  0  0  0  0  0  0  0  0
    0.5520   -1.4218    1.2905 H   0  0  0  0  0  0  0  0  0  0  0  0
   -0.3614   -2.9972   -4.8859 H   0  0  0  0  0  0  0  0  0  0  0  0
    0.7903   -2.0740   -5.8923 H   0  0  0  0  0  0  0  0  0  0  0  0
    3.7523   -3.8946   -2.6687 H   0  0  0  0  0  0  0  0  0  0  0  0
    2.6787   -4.5066   -1.4212 H   0  0  0  0  0  0  0  0  0  0  0  0
    1.2545   -5.8356   -7.0597 H   0  0  0  0  0  0  0  0  0  0  0  0
    0.6746   -4.1540   -6.9559 H   0  0  0  0  0  0  0  0  0  0  0  0
    4.3322   -5.6943   -8.8564 H   0  0  0  0  0  0  0  0  0  0  0  0
    6.1071   -8.4380   -5.9158 H   0  0  0  0  0  0  0  0  0  0  0  0
    4.8930   -7.3917   -4.2210 H   0  0  0  0  0  0  0  0  0  0  0  0
    5.0486   -4.7473   -3.7728 H   0  0  0  0  0  0  0  0  0  0  0  0
    5.7900   -4.5030   -5.3724 H   0  0  0  0  0  0  0  0  0  0  0  0
    4.3024   -3.6274   -4.9378 H   0  0  0  0  0  0  0  0  0  0  0  0
    3.9733   -6.6107   -1.7145 H   0  0  0  0  0  0  0  0  0  0  0  0
   -0.5107   -3.7139   -3.0639 H   0  0  0  0  0  0  0  0  0  0  0  0
    0.3209   -5.2737   -2.8548 H   0  0  0  0  0  0  0  0  0  0  0  0
    0.2288   -4.1253   -1.4980 H   0  0  0  0  0  0  0  0  0  0  0  0
    2.4575   -0.5164   -4.7278 H   0  0  0  0  0  0  0  0  0  0  0  0
    0.8961    0.2322   -5.1401 H   0  0  0  0  0  0  0  0  0  0  0  0
    1.6196    0.5079   -3.5373 H   0  0  0  0  0  0  0  0  0  0  0  0
    2.5976    0.5723   -2.0902 H   0  0  0  0  0  0  0  0  0  0  0  0
    2.8798   -0.4944   -0.6935 H   0  0  0  0  0  0  0  0  0  0  0  0
  1  2  1  0  0  0  0
  1 39  1  0  0  0  0
  1 40  1  0  0  0  0
  1 41  1  0  0  0  0
  2  3  1  0  0  0  0
  2 42  1  0  0  0  0
  2 43  1  0  0  0  0
  3  4  2  0  0  0  0
  3  5  1  0  0  0  0
  6  5  1  1  0  0  0
  6 12  1  0  0  0  0
  6  7  1  0  0  0  0
  6 35  1  0  0  0  0
  7  8  1  1  0  0  0
  7  9  1  0  0  0  0
  7 34  1  0  0  0  0
  9 10  1  0  0  0  0
  9 44  1  0  0  0  0
  9 45  1  0  0  0  0
 10 11  1  6  0  0  0
 10 17  1  0  0  0  0
 10 12  1  0  0  0  0
 12 13  1  0  0  0  0
 12 33  1  1  0  0  0
 13 14  1  0  0  0  0
 13 46  1  0  0  0  0
 13 47  1  0  0  0  0
 14 15  1  1  0  0  0
 14 16  1  0  0  0  0
 14 32  1  0  0  0  0
 16 28  1  0  0  0  0
 16 17  1  0  0  0  0
 16 31  1  6  0  0  0
 17 18  1  1  0  0  0
 17 19  1  0  0  0  0
 19 20  1  0  0  0  0
 19 48  1  0  0  0  0
 19 49  1  0  0  0  0
 20 21  1  1  0  0  0
 20 22  1  0  0  0  0
 20 30  1  0  0  0  0
 22 28  1  0  0  0  0
 22 23  2  0  0  0  0
 23 24  1  0  0  0  0
 23 50  1  0  0  0  0
 24 25  2  0  0  0  0
 24 26  1  0  0  0  0
 26 27  2  0  0  0  0
 26 51  1  0  0  0  0
 27 28  1  0  0  0  0
 27 52  1  0  0  0  0
 28 29  1  1  0  0  0
 29 53  1  0  0  0  0
 29 54  1  0  0  0  0
 29 55  1  0  0  0  0
 32 56  1  0  0  0  0
 33 57  1  0  0  0  0
 33 58  1  0  0  0  0
 33 59  1  0  0  0  0
 34 60  1  0  0  0  0
 34 61  1  0  0  0  0
 34 62  1  0  0  0  0
 35 36  2  0  0  0  0
 35 37  1  0  0  0  0
 37 38  1  0  0  0  0
 37 63  1  0  0  0  0
 37 64  1  0  0  0  0
M  END
$$$$
