ZINC03830507
 OpenBabel08292219463D

 41 43  0  0  1  0  0  0  0  0999 V2000
    2.2588   -3.8701    0.3359 C   0  0  0  0  0  0  0  0  0  0  0  0
    1.1923   -2.8153    0.1914 C   0  0  0  0  0  0  0  0  0  0  0  0
    1.5025   -1.6513    0.0980 O   0  0  0  0  0  0  0  0  0  0  0  0
   -0.1024   -3.1690    0.1664 O   0  0  0  0  0  0  0  0  0  0  0  0
   -1.0596   -2.1172    0.0270 C   0  0  0  0  0  0  0  0  0  0  0  0
   -2.4401   -2.7080   -0.1005 C   0  0  0  0  0  0  0  0  0  0  0  0
   -3.4337   -1.8398   -0.2207 C   0  0  0  0  0  0  0  0  0  0  0  0
   -4.7565   -2.2823   -0.3937 N   0  0  0  0  0  0  0  0  0  0  0  0
   -5.2852   -3.6463   -0.1320 C   0  0  1  0  0  0  0  0  0  0  0  0
   -5.5721   -3.8513    0.8994 H   0  0  0  0  0  0  0  0  0  0  0  0
   -6.4248   -3.2747   -1.0564 C   0  0  1  0  0  0  0  0  0  0  0  0
   -7.4144   -3.4552   -0.6366 H   0  0  0  0  0  0  0  0  0  0  0  0
   -5.9242   -1.8692   -0.8641 C   0  0  0  0  0  0  0  0  0  0  0  0
   -6.4062   -0.7742   -1.0638 O   0  0  0  0  0  0  0  0  0  0  0  0
   -6.2762   -3.7838   -2.4220 N   0  0  0  0  0  0  0  0  0  0  0  0
   -7.3661   -3.9820   -3.1896 C   0  0  0  0  0  0  0  0  0  0  0  0
   -8.4699   -3.7390   -2.7498 O   0  0  0  0  0  0  0  0  0  0  0  0
   -7.2133   -4.5057   -4.5944 C   0  0  0  0  0  0  0  0  0  0  0  0
   -8.5723   -4.6365   -5.2323 C   0  0  0  0  0  0  0  0  0  0  0  0
   -9.2658   -3.7257   -5.9582 C   0  0  0  0  0  0  0  0  0  0  0  0
  -10.5104   -4.0692   -6.4518 C   0  0  0  0  0  0  0  0  0  0  0  0
  -11.0007   -5.3066   -6.1954 C   0  0  0  0  0  0  0  0  0  0  0  0
   -9.6833   -6.0340   -5.2349 S   0  0  0  0  0  0  0  0  0  0  0  0
   -4.0531   -4.8087   -0.8124 S   0  0  0  0  0  0  0  0  0  0  0  0
   -2.5172   -4.2005   -0.0813 C   0  0  0  0  0  0  0  0  0  0  0  0
   -3.1492   -0.3964   -0.1722 C   0  0  0  0  0  0  0  0  0  0  0  0
   -1.9919   -0.0022   -0.1252 O   0  0  0  0  0  0  0  0  0  0  0  0
   -4.0701    0.4091   -0.1788 O   0  0  0  0  0  1  0  0  0  0  0  0
    3.2406   -3.3965    0.3359 H   0  0  0  0  0  0  0  0  0  0  0  0
    2.1144   -4.4069    1.2735 H   0  0  0  0  0  0  0  0  0  0  0  0
    2.1930   -4.5699   -0.4973 H   0  0  0  0  0  0  0  0  0  0  0  0
   -1.0203   -1.4716    0.9044 H   0  0  0  0  0  0  0  0  0  0  0  0
   -0.8306   -1.5332   -0.8644 H   0  0  0  0  0  0  0  0  0  0  0  0
   -5.3934   -3.9781   -2.7738 H   0  0  0  0  0  0  0  0  0  0  0  0
   -6.6041   -3.8137   -5.1758 H   0  0  0  0  0  0  0  0  0  0  0  0
   -6.7290   -5.4818   -4.5676 H   0  0  0  0  0  0  0  0  0  0  0  0
   -8.8523   -2.7462   -6.1477 H   0  0  0  0  0  0  0  0  0  0  0  0
  -11.0839   -3.3620   -7.0327 H   0  0  0  0  0  0  0  0  0  0  0  0
  -11.9422   -5.7412   -6.4973 H   0  0  0  0  0  0  0  0  0  0  0  0
   -1.6703   -4.6071   -0.6340 H   0  0  0  0  0  0  0  0  0  0  0  0
   -2.4646   -4.5457    0.9512 H   0  0  0  0  0  0  0  0  0  0  0  0
  1  2  1  0  0  0  0
  1 29  1  0  0  0  0
  1 30  1  0  0  0  0
  1 31  1  0  0  0  0
  2  3  2  0  0  0  0
  2  4  1  0  0  0  0
  4  5  1  0  0  0  0
  5  6  1  0  0  0  0
  5 32  1  0  0  0  0
  5 33  1  0  0  0  0
  6 25  1  0  0  0  0
  6  7  2  0  0  0  0
  7  8  1  0  0  0  0
  7 26  1  0  0  0  0
  8 13  1  0  0  0  0
  8  9  1  0  0  0  0
  9 10  1  1  0  0  0
  9 11  1  0  0  0  0
  9 24  1  0  0  0  0
 11 12  1  1  0  0  0
 11 13  1  0  0  0  0
 11 15  1  0  0  0  0
 13 14  2  0  0  0  0
 15 16  1  0  0  0  0
 15 34  1  0  0  0  0
 16 17  2  0  0  0  0
 16 18  1  0  0  0  0
 18 19  1  0  0  0  0
 18 35  1  0  0  0  0
 18 36  1  0  0  0  0
 19 23  1  0  0  0  0
 19 20  2  0  0  0  0
 20 21  1  0  0  0  0
 20 37  1  0  0  0  0
 21 22  2  0  0  0  0
 21 38  1  0  0  0  0
 22 23  1  0  0  0  0
 22 39  1  0  0  0  0
 24 25  1  0  0  0  0
 25 40  1  0  0  0  0
 25 41  1  0  0  0  0
 26 27  2  0  0  0  0
 26 28  1  0  0  0  0
M  END
$$$$
