ZINC03871967
 OpenBabel08292219463D

 39 41  0  0  1  0  0  0  0  0999 V2000
   -0.4025    3.2207   -1.1913 C   0  0  0  0  0  0  0  0  0  0  0  0
    0.9322    3.4970   -1.2875 C   0  0  0  0  0  0  0  0  0  0  0  0
    1.4353    3.8789   -2.4592 N   0  0  0  0  0  0  0  0  0  0  0  0
    0.6671    3.9947   -3.5268 C   0  0  0  0  0  0  0  0  0  0  0  0
   -0.9297    3.5319   -2.8710 S   0  0  0  0  0  0  0  0  0  0  0  0
    1.0085    4.3748   -4.8145 N   0  0  0  0  0  0  0  0  0  0  0  0
    1.8107    3.3730   -0.0993 C   0  0  0  0  0  0  0  0  0  0  0  0
    1.2800    3.0938    1.1014 C   0  0  0  0  0  0  0  0  0  0  0  0
    2.1532    3.0938    2.3296 C   0  0  0  0  0  0  0  0  0  0  0  0
    1.6066    4.0748    3.3346 C   0  0  0  0  0  0  0  0  0  0  0  0
    0.6011    4.7145    3.0773 O   0  0  0  0  0  0  0  0  0  0  0  0
    2.1698    4.2286    4.4049 O   0  0  0  0  0  1  0  0  0  0  0  0
    3.2699    3.5569   -0.2372 C   0  0  0  0  0  0  0  0  0  0  0  0
    3.7376    4.6769   -0.3069 O   0  0  0  0  0  0  0  0  0  0  0  0
    4.0829    2.4830   -0.2857 N   0  0  0  0  0  0  0  0  0  0  0  0
    5.5363    2.6651   -0.3119 C   0  0  1  0  0  0  0  0  0  0  0  0
    5.8483    3.6070    0.1393 H   0  0  0  0  0  0  0  0  0  0  0  0
    6.3012    1.4636    0.2177 C   0  0  2  0  0  0  0  0  0  0  0  0
    7.1558    1.6853    0.8571 H   0  0  0  0  0  0  0  0  0  0  0  0
    6.5876    1.2356   -1.2304 N   0  0  0  0  0  0  0  0  0  0  0  0
    6.1435    2.4266   -1.6765 C   0  0  0  0  0  0  0  0  0  0  0  0
    6.2032    3.0429   -2.7195 O   0  0  0  0  0  0  0  0  0  0  0  0
    7.0296    0.0274   -1.8091 C   0  0  0  0  0  0  0  0  0  0  0  0
    6.8653   -1.1213   -1.1712 C   0  0  0  0  0  0  0  0  0  0  0  0
    6.2855   -1.3571    0.1854 C   0  0  0  0  0  0  0  0  0  0  0  0
    5.2747    0.0588    0.7678 S   0  0  0  0  0  0  0  0  0  0  0  0
    7.6772    0.0436   -3.1308 C   0  0  0  0  0  0  0  0  0  0  0  0
    8.0621   -1.0019   -3.6363 O   0  0  0  0  0  0  0  0  0  0  0  0
    7.8307    1.1027   -3.7238 O   0  0  0  0  0  1  0  0  0  0  0  0
   -0.9792    2.8986   -0.3369 H   0  0  0  0  0  0  0  0  0  0  0  0
    1.9278    4.6009   -5.0258 H   0  0  0  0  0  0  0  0  0  0  0  0
    0.3282    4.4149   -5.5048 H   0  0  0  0  0  0  0  0  0  0  0  0
    0.2271    2.8691    1.1874 H   0  0  0  0  0  0  0  0  0  0  0  0
    2.1660    2.0953    2.7664 H   0  0  0  0  0  0  0  0  0  0  0  0
    3.1675    3.3829    2.0543 H   0  0  0  0  0  0  0  0  0  0  0  0
    3.7056    1.5896   -0.3032 H   0  0  0  0  0  0  0  0  0  0  0  0
    7.1931   -2.0033   -1.7012 H   0  0  0  0  0  0  0  0  0  0  0  0
    5.6626   -2.2511    0.1546 H   0  0  0  0  0  0  0  0  0  0  0  0
    7.0970   -1.5161    0.8954 H   0  0  0  0  0  0  0  0  0  0  0  0
  1  5  1  0  0  0  0
  1  2  2  0  0  0  0
  1 30  1  0  0  0  0
  2  3  1  0  0  0  0
  2  7  1  0  0  0  0
  3  4  2  0  0  0  0
  4  5  1  0  0  0  0
  4  6  1  0  0  0  0
  6 31  1  0  0  0  0
  6 32  1  0  0  0  0
  7  8  2  0  0  0  0
  7 13  1  0  0  0  0
  8  9  1  0  0  0  0
  8 33  1  0  0  0  0
  9 10  1  0  0  0  0
  9 34  1  0  0  0  0
  9 35  1  0  0  0  0
 10 11  2  0  0  0  0
 10 12  1  0  0  0  0
 13 14  2  0  0  0  0
 13 15  1  0  0  0  0
 15 16  1  0  0  0  0
 15 36  1  0  0  0  0
 16 17  1  1  0  0  0
 16 21  1  0  0  0  0
 16 18  1  0  0  0  0
 18 19  1  1  0  0  0
 18 26  1  0  0  0  0
 18 20  1  0  0  0  0
 20 21  1  0  0  0  0
 20 23  1  0  0  0  0
 21 22  2  0  0  0  0
 23 24  2  0  0  0  0
 23 27  1  0  0  0  0
 24 25  1  0  0  0  0
 24 37  1  0  0  0  0
 25 26  1  0  0  0  0
 25 38  1  0  0  0  0
 25 39  1  0  0  0  0
 27 28  2  0  0  0  0
 27 29  1  0  0  0  0
M  END
$$$$
