ZINC04340269
 OpenBabel08292219463D

 23 23  0  0  0  0  0  0  0  0999 V2000
    0.0541    1.3093    0.0511 C   0  0  0  0  0  0  0  0  0  0  0  0
    1.2379    2.0581   -0.0359 C   0  0  0  0  0  0  0  0  0  0  0  0
    2.4129    1.4496    0.0702 N   0  0  0  0  0  0  0  0  0  0  0  0
    2.4640    0.1373    0.2579 C   0  0  0  0  0  0  0  0  0  0  0  0
    1.2815   -0.6064    0.3442 C   0  0  0  0  0  0  0  0  0  0  0  0
    0.1144   -0.0080    0.2397 N   0  0  0  0  0  0  0  0  0  0  0  0
    1.3549   -2.3233    0.5899 Cl  0  0  0  0  0  0  0  0  0  0  0  0
    3.6896   -0.4980    0.3683 N   0  0  0  0  0  0  0  0  0  0  0  0
    1.1804    3.4267   -0.2323 N   0  0  0  0  0  0  0  0  0  0  0  0
   -1.2563    1.9814   -0.0602 C   0  0  0  0  0  0  0  0  0  0  0  0
   -1.3142    3.1971   -0.1232 O   0  0  0  0  0  0  0  0  0  0  0  0
   -2.3824    1.2540   -0.0918 N   0  0  0  0  0  0  0  0  0  0  0  0
   -3.3650    1.5181    0.7551 C   0  0  0  0  0  0  0  0  0  0  0  0
   -3.1890    2.4512    1.7344 N   0  0  0  0  0  0  0  0  0  0  0  0
   -4.5534    0.8571    0.6484 N   0  0  0  0  0  0  0  0  0  0  0  0
    4.5097    0.0166    0.3083 H   0  0  0  0  0  0  0  0  0  0  0  0
    3.7280   -1.4575    0.5055 H   0  0  0  0  0  0  0  0  0  0  0  0
    0.3235    3.8812   -0.2317 H   0  0  0  0  0  0  0  0  0  0  0  0
    1.9971    3.9316   -0.3704 H   0  0  0  0  0  0  0  0  0  0  0  0
   -5.2734    1.0506    1.2690 H   0  0  0  0  0  0  0  0  0  0  0  0
   -2.3709    2.9712    1.7674 H   0  0  0  0  0  0  0  0  0  0  0  0
   -4.6786    0.1935   -0.0480 H   0  0  0  0  0  0  0  0  0  0  0  0
   -3.8820    2.5947    2.3977 H   0  0  0  0  0  0  0  0  0  0  0  0
  1  6  2  0  0  0  0
  1  2  1  0  0  0  0
  1 10  1  0  0  0  0
  2  3  2  0  0  0  0
  2  9  1  0  0  0  0
  3  4  1  0  0  0  0
  4  5  2  0  0  0  0
  4  8  1  0  0  0  0
  5  6  1  0  0  0  0
  5  7  1  0  0  0  0
  8 16  1  0  0  0  0
  8 17  1  0  0  0  0
  9 18  1  0  0  0  0
  9 19  1  0  0  0  0
 10 12  1  0  0  0  0
 10 11  2  0  0  0  0
 12 13  2  0  0  0  0
 13 14  1  0  0  0  0
 13 15  1  0  0  0  0
 14 21  1  0  0  0  0
 14 23  1  0  0  0  0
 15 22  1  0  0  0  0
 15 20  1  0  0  0  0
M  END
$$$$
