ZINC00000365
 OpenBabel08292219463D

 43 44  0  0  1  0  0  0  0  0999 V2000
   -0.0187    1.5258    0.0104 C   0  0  0  0  0  0  0  0  0  0  0  0
    0.0021   -0.0041    0.0020 C   0  0  2  0  0  0  0  0  0  0  0  0
    0.5123   -0.3556   -0.8948 H   0  0  0  0  0  0  0  0  0  0  0  0
   -1.4333   -0.5336    0.0129 C   0  0  0  0  0  0  0  0  0  0  0  0
   -1.4134   -2.0025    0.0048 N   0  3  0  0  0  0  0  0  0  0  0  0
   -2.7915   -2.5110    0.0152 C   0  0  0  0  0  0  0  0  0  0  0  0
   -3.4685   -2.1226    1.3312 C   0  0  0  0  0  0  0  0  0  0  0  0
   -4.9039   -2.6522    1.3421 C   0  0  0  0  0  0  0  0  0  0  0  0
   -4.8862   -4.1762    1.2080 C   0  0  0  0  0  0  0  0  0  0  0  0
   -4.2093   -4.5646   -0.1080 C   0  0  0  0  0  0  0  0  0  0  0  0
   -2.7739   -4.0350   -0.1189 C   0  0  0  0  0  0  0  0  0  0  0  0
    0.6932   -0.4774    1.1597 O   0  0  0  0  0  0  0  0  0  0  0  0
    2.0226   -0.6627    1.0452 C   0  0  0  0  0  0  0  0  0  0  0  0
    2.5799   -0.4288   -0.0084 O   0  0  0  0  0  0  0  0  0  0  0  0
    2.8027   -1.1502    2.2011 C   0  0  0  0  0  0  0  0  0  0  0  0
    2.1644   -1.4255    3.4120 C   0  0  0  0  0  0  0  0  0  0  0  0
    2.8989   -1.8805    4.4874 C   0  0  0  0  0  0  0  0  0  0  0  0
    4.2651   -2.0642    4.3680 C   0  0  0  0  0  0  0  0  0  0  0  0
    4.9041   -1.7929    3.1711 C   0  0  0  0  0  0  0  0  0  0  0  0
    4.1808   -1.3433    2.0859 C   0  0  0  0  0  0  0  0  0  0  0  0
    1.0039    1.9031    0.0027 H   0  0  0  0  0  0  0  0  0  0  0  0
   -0.5459    1.8868   -0.8726 H   0  0  0  0  0  0  0  0  0  0  0  0
   -0.5289    1.8773    0.9072 H   0  0  0  0  0  0  0  0  0  0  0  0
   -1.9435   -0.1821    0.9097 H   0  0  0  0  0  0  0  0  0  0  0  0
   -1.9605   -0.1726   -0.8702 H   0  0  0  0  0  0  0  0  0  0  0  0
   -0.9411   -2.3279   -0.8254 H   0  0  0  0  0  0  0  0  0  0  0  0
   -3.3444   -2.0792   -0.8190 H   0  0  0  0  0  0  0  0  0  0  0  0
   -2.9156   -2.5543    2.1655 H   0  0  0  0  0  0  0  0  0  0  0  0
   -3.4811   -1.0368    1.4267 H   0  0  0  0  0  0  0  0  0  0  0  0
   -5.3862   -2.3755    2.2796 H   0  0  0  0  0  0  0  0  0  0  0  0
   -5.4568   -2.2204    0.5078 H   0  0  0  0  0  0  0  0  0  0  0  0
   -4.3333   -4.6079    2.0422 H   0  0  0  0  0  0  0  0  0  0  0  0
   -5.9088   -4.5534    1.2157 H   0  0  0  0  0  0  0  0  0  0  0  0
   -4.1967   -5.6503   -0.2035 H   0  0  0  0  0  0  0  0  0  0  0  0
   -4.7622   -4.1328   -0.9423 H   0  0  0  0  0  0  0  0  0  0  0  0
   -2.2916   -4.3117   -1.0564 H   0  0  0  0  0  0  0  0  0  0  0  0
   -2.2210   -4.4667    0.7154 H   0  0  0  0  0  0  0  0  0  0  0  0
    1.0981   -1.2822    3.5067 H   0  0  0  0  0  0  0  0  0  0  0  0
    2.4065   -2.0935    5.4247 H   0  0  0  0  0  0  0  0  0  0  0  0
    4.8354   -2.4206    5.2131 H   0  0  0  0  0  0  0  0  0  0  0  0
    5.9708   -1.9378    3.0849 H   0  0  0  0  0  0  0  0  0  0  0  0
    4.6800   -1.1366    1.1508 H   0  0  0  0  0  0  0  0  0  0  0  0
   -0.9254   -2.3367    0.8222 H   0  0  0  0  0  0  0  0  0  0  0  0
  1  2  1  0  0  0  0
  1 21  1  0  0  0  0
  1 22  1  0  0  0  0
  1 23  1  0  0  0  0
  2  3  1  6  0  0  0
  2  4  1  0  0  0  0
  2 12  1  0  0  0  0
  4  5  1  0  0  0  0
  4 24  1  0  0  0  0
  4 25  1  0  0  0  0
  5  6  1  0  0  0  0
  5 26  1  0  0  0  0
  5 43  1  0  0  0  0
  6 11  1  0  0  0  0
  6  7  1  0  0  0  0
  6 27  1  0  0  0  0
  7  8  1  0  0  0  0
  7 28  1  0  0  0  0
  7 29  1  0  0  0  0
  8  9  1  0  0  0  0
  8 30  1  0  0  0  0
  8 31  1  0  0  0  0
  9 10  1  0  0  0  0
  9 32  1  0  0  0  0
  9 33  1  0  0  0  0
 10 11  1  0  0  0  0
 10 34  1  0  0  0  0
 10 35  1  0  0  0  0
 11 36  1  0  0  0  0
 11 37  1  0  0  0  0
 12 13  1  0  0  0  0
 13 14  2  0  0  0  0
 13 15  1  0  0  0  0
 15 20  2  0  0  0  0
 15 16  1  0  0  0  0
 16 17  2  0  0  0  0
 16 38  1  0  0  0  0
 17 18  1  0  0  0  0
 17 39  1  0  0  0  0
 18 19  2  0  0  0  0
 18 40  1  0  0  0  0
 19 20  1  0  0  0  0
 19 41  1  0  0  0  0
 20 42  1  0  0  0  0
M  CHG  1   5   1
M  END
$$$$
