ZINC00057512
 OpenBabel08292219463D

 41 42  0  0  0  0  0  0  0  0999 V2000
   -0.0184    1.5028    0.0103 C   0  0  0  0  0  0  0  0  0  0  0  0
    0.0021   -0.0041    0.0020 C   0  0  0  0  0  0  0  0  0  0  0  0
    0.0057   -0.6887   -1.1989 C   0  0  0  0  0  0  0  0  0  0  0  0
    0.0245   -2.0709   -1.2065 C   0  0  0  0  0  0  0  0  0  0  0  0
    0.0400   -2.7685   -0.0132 C   0  0  0  0  0  0  0  0  0  0  0  0
    0.0373   -2.0839    1.1877 C   0  0  0  0  0  0  0  0  0  0  0  0
    0.0229   -0.7016    1.1953 C   0  0  0  0  0  0  0  0  0  0  0  0
    0.0628   -4.5303   -0.0229 S   0  0  0  0  0  0  0  0  0  0  0  0
   -0.4759   -4.9503    1.2232 O   0  0  0  0  0  0  0  0  0  0  0  0
   -0.4897   -4.9367   -1.2674 O   0  0  0  0  0  0  0  0  0  0  0  0
    1.6509   -4.9994   -0.0343 N   0  0  0  0  0  0  0  0  0  0  0  0
    1.9555   -6.2642   -0.0428 C   0  0  0  0  0  0  0  0  0  0  0  0
    0.9762   -7.1949   -0.0424 O   0  5  0  0  0  0  0  0  0  0  0  0
    3.2726   -6.6533   -0.0522 N   0  0  0  0  0  0  0  0  0  0  0  0
    4.2627   -5.7123   -0.0526 N   0  0  0  0  0  0  0  0  0  0  0  0
    4.9810   -5.7006   -1.3424 C   0  0  0  0  0  0  0  0  0  0  0  0
    5.4853   -4.2998   -1.5836 C   0  0  0  0  0  0  0  0  0  0  0  0
    6.9394   -4.1316   -1.1108 C   0  0  0  0  0  0  0  0  0  0  0  0
    7.1952   -4.8445    0.2321 C   0  0  0  0  0  0  0  0  0  0  0  0
    6.0629   -4.6618    1.2104 C   0  0  0  0  0  0  0  0  0  0  0  0
    5.0816   -5.8463    1.0722 C   0  0  0  0  0  0  0  0  0  0  0  0
    1.0042    1.8801    0.0026 H   0  0  0  0  0  0  0  0  0  0  0  0
   -0.5455    1.8639   -0.8728 H   0  0  0  0  0  0  0  0  0  0  0  0
   -0.5286    1.8543    0.9071 H   0  0  0  0  0  0  0  0  0  0  0  0
   -0.0064   -0.1436   -2.1312 H   0  0  0  0  0  0  0  0  0  0  0  0
    0.0266   -2.6057   -2.1448 H   0  0  0  0  0  0  0  0  0  0  0  0
    0.0491   -2.6289    2.1200 H   0  0  0  0  0  0  0  0  0  0  0  0
    0.0245   -0.1667    2.1335 H   0  0  0  0  0  0  0  0  0  0  0  0
    3.4997   -7.5963   -0.0586 H   0  0  0  0  0  0  0  0  0  0  0  0
    5.8219   -6.3929   -1.3019 H   0  0  0  0  0  0  0  0  0  0  0  0
    4.3024   -5.9909   -2.1444 H   0  0  0  0  0  0  0  0  0  0  0  0
    5.4304   -4.0807   -2.6500 H   0  0  0  0  0  0  0  0  0  0  0  0
    4.8520   -3.5958   -1.0439 H   0  0  0  0  0  0  0  0  0  0  0  0
    7.6078   -4.5462   -1.8653 H   0  0  0  0  0  0  0  0  0  0  0  0
    7.1537   -3.0692   -0.9947 H   0  0  0  0  0  0  0  0  0  0  0  0
    7.3308   -5.9098    0.0451 H   0  0  0  0  0  0  0  0  0  0  0  0
    8.1094   -4.4473    0.6732 H   0  0  0  0  0  0  0  0  0  0  0  0
    6.4591   -4.6330    2.2254 H   0  0  0  0  0  0  0  0  0  0  0  0
    5.5415   -3.7293    0.9946 H   0  0  0  0  0  0  0  0  0  0  0  0
    4.4558   -5.8950    1.9634 H   0  0  0  0  0  0  0  0  0  0  0  0
    5.6513   -6.7718    0.9888 H   0  0  0  0  0  0  0  0  0  0  0  0
  1  2  1  0  0  0  0
  1 22  1  0  0  0  0
  1 23  1  0  0  0  0
  1 24  1  0  0  0  0
  2  7  2  0  0  0  0
  2  3  1  0  0  0  0
  3  4  2  0  0  0  0
  3 25  1  0  0  0  0
  4  5  1  0  0  0  0
  4 26  1  0  0  0  0
  5  6  2  0  0  0  0
  5  8  1  0  0  0  0
  6  7  1  0  0  0  0
  6 27  1  0  0  0  0
  7 28  1  0  0  0  0
  8  9  2  0  0  0  0
  8 10  2  0  0  0  0
  8 11  1  0  0  0  0
 11 12  2  0  0  0  0
 12 13  1  0  0  0  0
 12 14  1  0  0  0  0
 14 15  1  0  0  0  0
 14 29  1  0  0  0  0
 15 21  1  0  0  0  0
 15 16  1  0  0  0  0
 16 17  1  0  0  0  0
 16 30  1  0  0  0  0
 16 31  1  0  0  0  0
 17 18  1  0  0  0  0
 17 32  1  0  0  0  0
 17 33  1  0  0  0  0
 18 19  1  0  0  0  0
 18 34  1  0  0  0  0
 18 35  1  0  0  0  0
 19 20  1  0  0  0  0
 19 36  1  0  0  0  0
 19 37  1  0  0  0  0
 20 21  1  0  0  0  0
 20 38  1  0  0  0  0
 20 39  1  0  0  0  0
 21 40  1  0  0  0  0
 21 41  1  0  0  0  0
M  CHG  1  13  -1
M  END
$$$$
