ZINC00896731
 OpenBabel08292219463D

 28 29  0  0  1  0  0  0  0  0999 V2000
    2.0475    7.7134    1.4352 C   0  0  0  0  0  0  0  0  0  0  0  0
    1.6787    7.3068    0.0071 C   0  0  2  0  0  0  0  0  0  0  0  0
    0.8381    7.9096   -0.3367 H   0  0  0  0  0  0  0  0  0  0  0  0
    1.2950    5.8496   -0.0171 C   0  0  0  0  0  0  0  0  0  0  0  0
    0.0653    5.3153   -0.0285 C   0  0  0  0  0  0  0  0  0  0  0  0
   -0.0827    3.8675   -0.0525 C   0  0  0  0  0  0  0  0  0  0  0  0
   -1.2705    3.0985   -0.0677 C   0  0  0  0  0  0  0  0  0  0  0  0
   -1.2186    1.7403   -0.0951 C   0  0  0  0  0  0  0  0  0  0  0  0
   -0.0081    1.0599   -0.0982 C   0  0  0  0  0  0  0  0  0  0  0  0
    1.1733    1.7740   -0.0839 C   0  0  0  0  0  0  0  0  0  0  0  0
    1.1340    3.1518   -0.0615 C   0  0  0  0  0  0  0  0  0  0  0  0
    2.3680    4.4263   -0.0380 S   0  0  0  0  0  0  0  0  0  0  0  0
    2.8283    7.5237   -0.8747 N   0  0  0  0  0  0  0  0  0  0  0  0
    3.9879    6.8778   -0.6414 C   0  0  0  0  0  0  0  0  0  0  0  0
    4.1148    6.1985    0.3590 O   0  0  0  0  0  0  0  0  0  0  0  0
    5.0068    6.9847   -1.5171 N   0  0  0  0  0  0  0  0  0  0  0  0
    2.7211    8.4121   -1.9721 O   0  0  0  0  0  0  0  0  0  0  0  0
    1.1921    7.5520    2.0913 H   0  0  0  0  0  0  0  0  0  0  0  0
    2.8880    7.1106    1.7791 H   0  0  0  0  0  0  0  0  0  0  0  0
    2.3250    8.7673    1.4527 H   0  0  0  0  0  0  0  0  0  0  0  0
   -0.8065    5.9527   -0.0204 H   0  0  0  0  0  0  0  0  0  0  0  0
   -2.2290    3.5962   -0.0613 H   0  0  0  0  0  0  0  0  0  0  0  0
   -2.1402    1.1774   -0.1108 H   0  0  0  0  0  0  0  0  0  0  0  0
    0.0090   -0.0198   -0.1162 H   0  0  0  0  0  0  0  0  0  0  0  0
    2.1215    1.2569   -0.0907 H   0  0  0  0  0  0  0  0  0  0  0  0
    4.9327    7.5833   -2.2768 H   0  0  0  0  0  0  0  0  0  0  0  0
    5.8144    6.4632   -1.3876 H   0  0  0  0  0  0  0  0  0  0  0  0
    3.5032    8.4313   -2.5405 H   0  0  0  0  0  0  0  0  0  0  0  0
  1  2  1  0  0  0  0
  1 18  1  0  0  0  0
  1 19  1  0  0  0  0
  1 20  1  0  0  0  0
  2  3  1  6  0  0  0
  2  4  1  0  0  0  0
  2 13  1  0  0  0  0
  4 12  1  0  0  0  0
  4  5  2  0  0  0  0
  5  6  1  0  0  0  0
  5 21  1  0  0  0  0
  6 11  2  0  0  0  0
  6  7  1  0  0  0  0
  7  8  2  0  0  0  0
  7 22  1  0  0  0  0
  8  9  1  0  0  0  0
  8 23  1  0  0  0  0
  9 10  2  0  0  0  0
  9 24  1  0  0  0  0
 10 11  1  0  0  0  0
 10 25  1  0  0  0  0
 11 12  1  0  0  0  0
 13 14  1  0  0  0  0
 13 17  1  0  0  0  0
 14 15  2  0  0  0  0
 14 16  1  0  0  0  0
 16 26  1  0  0  0  0
 16 27  1  0  0  0  0
 17 28  1  0  0  0  0
M  END
$$$$
