ZINC01530694
 OpenBabel08292219463D

 57 58  0  0  1  0  0  0  0  0999 V2000
    0.5966    0.8718    0.2636 C   0  0  0  0  0  0  0  0  0  0  0  0
    0.6485   -0.6493    0.1073 C   0  0  0  0  0  0  0  0  0  0  0  0
    1.1703   -0.9782   -1.1817 O   0  0  0  0  0  0  0  0  0  0  0  0
    1.1908   -2.2947   -1.5220 C   0  0  0  0  0  0  0  0  0  0  0  0
    0.6287   -3.2388   -0.6779 C   0  0  0  0  0  0  0  0  0  0  0  0
    0.6499   -4.5767   -1.0255 C   0  0  0  0  0  0  0  0  0  0  0  0
    1.2316   -4.9760   -2.2144 C   0  0  0  0  0  0  0  0  0  0  0  0
    1.7945   -4.0392   -3.0609 C   0  0  0  0  0  0  0  0  0  0  0  0
    1.7712   -2.6960   -2.7214 C   0  0  0  0  0  0  0  0  0  0  0  0
    2.3192   -1.7725   -3.5558 O   0  0  0  0  0  0  0  0  0  0  0  0
    2.9799   -2.2643   -4.7236 C   0  0  0  0  0  0  0  0  0  0  0  0
    3.6364   -1.0993   -5.4669 C   0  0  0  0  0  0  0  0  0  0  0  0
    4.7254   -0.5482   -4.6494 N   0  3  0  0  0  0  0  0  0  0  0  0
    5.2669    0.6523   -5.3002 C   0  0  2  0  0  0  0  0  0  0  0  0
    4.4618    1.3663   -5.4731 H   0  0  0  0  0  0  0  0  0  0  0  0
    5.9013    0.2653   -6.6376 C   0  0  0  0  0  0  0  0  0  0  0  0
    6.3268    1.2874   -4.3978 C   0  0  0  0  0  0  0  0  0  0  0  0
    5.6854    1.7401   -3.1114 C   0  0  0  0  0  0  0  0  0  0  0  0
    5.0487    2.9663   -3.0518 C   0  0  0  0  0  0  0  0  0  0  0  0
    4.4605    3.3837   -1.8738 C   0  0  0  0  0  0  0  0  0  0  0  0
    4.5084    2.5714   -0.7499 C   0  0  0  0  0  0  0  0  0  0  0  0
    5.1472    1.3418   -0.8125 C   0  0  0  0  0  0  0  0  0  0  0  0
    5.7296    0.9265   -1.9946 C   0  0  0  0  0  0  0  0  0  0  0  0
    5.2103    0.3074    0.6125 S   0  0  0  0  0  0  0  0  0  0  0  0
    3.8883    0.2482    1.1303 O   0  0  0  0  0  0  0  0  0  0  0  0
    5.9345   -0.8564    0.2378 O   0  0  0  0  0  0  0  0  0  0  0  0
    6.1280    1.0913    1.7464 N   0  0  0  0  0  0  0  0  0  0  0  0
    3.9308    2.9801    0.4104 O   0  0  0  0  0  0  0  0  0  0  0  0
    3.2911    4.2579    0.4017 C   0  0  0  0  0  0  0  0  0  0  0  0
    1.6099    1.2732    0.2509 H   0  0  0  0  0  0  0  0  0  0  0  0
    0.0250    1.3022   -0.5587 H   0  0  0  0  0  0  0  0  0  0  0  0
    0.1178    1.1237    1.2099 H   0  0  0  0  0  0  0  0  0  0  0  0
    1.2924   -1.0720    0.8786 H   0  0  0  0  0  0  0  0  0  0  0  0
   -0.3564   -1.0594    0.2079 H   0  0  0  0  0  0  0  0  0  0  0  0
    0.1743   -2.9296    0.2518 H   0  0  0  0  0  0  0  0  0  0  0  0
    0.2114   -5.3116   -0.3667 H   0  0  0  0  0  0  0  0  0  0  0  0
    1.2465   -6.0221   -2.4823 H   0  0  0  0  0  0  0  0  0  0  0  0
    2.2487   -4.3538   -3.9889 H   0  0  0  0  0  0  0  0  0  0  0  0
    3.7433   -2.9858   -4.4324 H   0  0  0  0  0  0  0  0  0  0  0  0
    2.2528   -2.7480   -5.3759 H   0  0  0  0  0  0  0  0  0  0  0  0
    4.0383   -1.4541   -6.4160 H   0  0  0  0  0  0  0  0  0  0  0  0
    2.8941   -0.3233   -5.6541 H   0  0  0  0  0  0  0  0  0  0  0  0
    4.3708   -0.3051   -3.7366 H   0  0  0  0  0  0  0  0  0  0  0  0
    5.1463   -0.1872   -7.2804 H   0  0  0  0  0  0  0  0  0  0  0  0
    6.3032    1.1561   -7.1204 H   0  0  0  0  0  0  0  0  0  0  0  0
    6.7065   -0.4488   -6.4647 H   0  0  0  0  0  0  0  0  0  0  0  0
    7.1035    0.5548   -4.1783 H   0  0  0  0  0  0  0  0  0  0  0  0
    6.7690    2.1450   -4.9048 H   0  0  0  0  0  0  0  0  0  0  0  0
    5.0117    3.5982   -3.9268 H   0  0  0  0  0  0  0  0  0  0  0  0
    3.9640    4.3417   -1.8275 H   0  0  0  0  0  0  0  0  0  0  0  0
    6.2236   -0.0325   -2.0450 H   0  0  0  0  0  0  0  0  0  0  0  0
    6.5094    1.9602    1.5453 H   0  0  0  0  0  0  0  0  0  0  0  0
    6.2842    0.6815    2.6116 H   0  0  0  0  0  0  0  0  0  0  0  0
    4.0208    5.0278    0.1507 H   0  0  0  0  0  0  0  0  0  0  0  0
    2.4920    4.2592   -0.3396 H   0  0  0  0  0  0  0  0  0  0  0  0
    2.8726    4.4614    1.3874 H   0  0  0  0  0  0  0  0  0  0  0  0
    5.4561   -1.2375   -4.5538 H   0  0  0  0  0  0  0  0  0  0  0  0
  1  2  1  0  0  0  0
  1 30  1  0  0  0  0
  1 31  1  0  0  0  0
  1 32  1  0  0  0  0
  2  3  1  0  0  0  0
  2 33  1  0  0  0  0
  2 34  1  0  0  0  0
  3  4  1  0  0  0  0
  4  9  2  0  0  0  0
  4  5  1  0  0  0  0
  5  6  2  0  0  0  0
  5 35  1  0  0  0  0
  6  7  1  0  0  0  0
  6 36  1  0  0  0  0
  7  8  2  0  0  0  0
  7 37  1  0  0  0  0
  8  9  1  0  0  0  0
  8 38  1  0  0  0  0
  9 10  1  0  0  0  0
 10 11  1  0  0  0  0
 11 12  1  0  0  0  0
 11 39  1  0  0  0  0
 11 40  1  0  0  0  0
 12 13  1  0  0  0  0
 12 41  1  0  0  0  0
 12 42  1  0  0  0  0
 13 14  1  0  0  0  0
 13 43  1  0  0  0  0
 13 57  1  0  0  0  0
 14 15  1  6  0  0  0
 14 16  1  0  0  0  0
 14 17  1  0  0  0  0
 16 44  1  0  0  0  0
 16 45  1  0  0  0  0
 16 46  1  0  0  0  0
 17 18  1  0  0  0  0
 17 47  1  0  0  0  0
 17 48  1  0  0  0  0
 18 23  2  0  0  0  0
 18 19  1  0  0  0  0
 19 20  2  0  0  0  0
 19 49  1  0  0  0  0
 20 21  1  0  0  0  0
 20 50  1  0  0  0  0
 21 22  2  0  0  0  0
 21 28  1  0  0  0  0
 22 23  1  0  0  0  0
 22 24  1  0  0  0  0
 23 51  1  0  0  0  0
 24 25  2  0  0  0  0
 24 26  2  0  0  0  0
 24 27  1  0  0  0  0
 27 52  1  0  0  0  0
 27 53  1  0  0  0  0
 28 29  1  0  0  0  0
 29 54  1  0  0  0  0
 29 55  1  0  0  0  0
 29 56  1  0  0  0  0
M  CHG  1  13   1
M  END
$$$$
