ZINC00002151
 OpenBabel08292219463D

 21 22  0  0  0  0  0  0  0  0999 V2000
   -0.0178    1.4608    0.0101 C   0  0  0  0  0  0  0  0  0  0  0  0
    0.0021   -0.0041    0.0020 N   0  0  0  0  0  0  0  0  0  0  0  0
    0.0085   -0.7996   -1.0853 C   0  0  0  0  0  0  0  0  0  0  0  0
    0.0275   -2.0544   -0.7142 N   0  0  0  0  0  0  0  0  0  0  0  0
    0.0343   -2.1318    0.6190 C   0  0  0  0  0  0  0  0  0  0  0  0
    0.0238   -0.8312    1.1071 C   0  0  0  0  0  0  0  0  0  0  0  0
    0.0338   -0.6202    2.5028 C   0  0  0  0  0  0  0  0  0  0  0  0
    0.0219    0.5106    2.9550 O   0  0  0  0  0  0  0  0  0  0  0  0
    0.0564   -1.6860    3.3300 N   0  0  0  0  0  0  0  0  0  0  0  0
    0.0630   -1.5457    4.2898 H   0  0  0  0  0  0  0  0  0  0  0  0
    0.0693   -2.9392    2.8440 C   0  0  0  0  0  0  0  0  0  0  0  0
    0.0891   -3.8755    3.6197 O   0  0  0  0  0  0  0  0  0  0  0  0
    0.0527   -3.1841    1.5201 N   0  0  0  0  0  0  0  0  0  0  0  0
    0.0693   -4.5651    1.0316 C   0  0  0  0  0  0  0  0  0  0  0  0
    1.0048    1.8381    0.0023 H   0  0  0  0  0  0  0  0  0  0  0  0
   -0.5450    1.8219   -0.8730 H   0  0  0  0  0  0  0  0  0  0  0  0
   -0.5280    1.8123    0.9069 H   0  0  0  0  0  0  0  0  0  0  0  0
   -0.0012   -0.4540   -2.1085 H   0  0  0  0  0  0  0  0  0  0  0  0
    1.1010   -4.8936    0.9058 H   0  0  0  0  0  0  0  0  0  0  0  0
   -0.4324   -5.2114    1.7518 H   0  0  0  0  0  0  0  0  0  0  0  0
   -0.4482   -4.6180    0.0738 H   0  0  0  0  0  0  0  0  0  0  0  0
  1  2  1  0  0  0  0
  1 15  1  0  0  0  0
  1 16  1  0  0  0  0
  1 17  1  0  0  0  0
  2  6  1  0  0  0  0
  2  3  1  0  0  0  0
  3  4  2  0  0  0  0
  3 18  1  0  0  0  0
  4  5  1  0  0  0  0
  5 13  1  0  0  0  0
  5  6  2  0  0  0  0
  6  7  1  0  0  0  0
  7  8  2  0  0  0  0
  7  9  1  0  0  0  0
  9 10  1  0  0  0  0
  9 11  1  0  0  0  0
 11 12  2  0  0  0  0
 11 13  1  0  0  0  0
 13 14  1  0  0  0  0
 14 19  1  0  0  0  0
 14 20  1  0  0  0  0
 14 21  1  0  0  0  0
M  END
$$$$
