ZINC02016037
 OpenBabel08292219463D

 43 46  0  0  1  0  0  0  0  0999 V2000
   -0.0167    1.3840    0.0097 C   0  0  0  0  0  0  0  0  0  0  0  0
    1.1323    2.1108    0.0026 C   0  0  0  0  0  0  0  0  0  0  0  0
    2.3939    1.4700   -0.0134 C   0  0  0  0  0  0  0  0  0  0  0  0
    3.7202    2.0695   -0.0229 C   0  0  0  0  0  0  0  0  0  0  0  0
    4.8000    1.2748   -0.0376 C   0  0  0  0  0  0  0  0  0  0  0  0
    4.1082   -0.3681   -0.0398 S   0  0  0  0  0  0  0  0  0  0  0  0
    2.3863    0.0584   -0.0209 C   0  0  0  0  0  0  0  0  0  0  0  0
    1.2140   -0.6681   -0.0139 C   0  0  0  0  0  0  0  0  0  0  0  0
    0.0021   -0.0041    0.0020 C   0  0  0  0  0  0  0  0  0  0  0  0
    1.2605   -2.4034   -0.0241 Cl  0  0  0  0  0  0  0  0  0  0  0  0
    3.8781    3.5682   -0.0167 C   0  0  0  0  0  0  0  0  0  0  0  0
    5.2678    3.9008   -0.0282 O   0  0  0  0  0  0  0  0  0  0  0  0
    5.5293    5.3057   -0.0235 C   0  0  1  0  0  0  0  0  0  0  0  0
    4.7160    5.8283   -0.5270 H   0  0  0  0  0  0  0  0  0  0  0  0
    5.6363    5.7997    1.4206 C   0  0  0  0  0  0  0  0  0  0  0  0
    4.3409    5.6444    2.0871 N   0  0  0  0  0  0  0  0  0  0  0  0
    3.3318    6.5684    2.1265 C   0  0  0  0  0  0  0  0  0  0  0  0
    2.3288    6.0198    2.8382 C   0  0  0  0  0  0  0  0  0  0  0  0
    2.7149    4.7942    3.2228 N   0  0  0  0  0  4  0  0  0  0  0  0
    3.9171    4.5606    2.7722 C   0  0  0  0  0  0  0  0  0  0  0  0
    6.8242    5.5781   -0.7448 C   0  0  0  0  0  0  0  0  0  0  0  0
    7.7875    4.5904   -0.8323 C   0  0  0  0  0  0  0  0  0  0  0  0
    8.9752    4.8394   -1.4936 C   0  0  0  0  0  0  0  0  0  0  0  0
    9.2006    6.0776   -2.0690 C   0  0  0  0  0  0  0  0  0  0  0  0
    8.2370    7.0660   -1.9822 C   0  0  0  0  0  0  0  0  0  0  0  0
    7.0462    6.8145   -1.3242 C   0  0  0  0  0  0  0  0  0  0  0  0
    5.8337    8.0524   -1.2199 Cl  0  0  0  0  0  0  0  0  0  0  0  0
   10.6928    6.3904   -2.8991 Cl  0  0  0  0  0  0  0  0  0  0  0  0
   -0.9662    1.8985    0.0261 H   0  0  0  0  0  0  0  0  0  0  0  0
    1.0816    3.1896    0.0089 H   0  0  0  0  0  0  0  0  0  0  0  0
    5.8412    1.5618   -0.0460 H   0  0  0  0  0  0  0  0  0  0  0  0
   -0.9233   -0.5608    0.0085 H   0  0  0  0  0  0  0  0  0  0  0  0
    3.3968    3.9879   -0.9001 H   0  0  0  0  0  0  0  0  0  0  0  0
    3.4136    3.9788    0.8798 H   0  0  0  0  0  0  0  0  0  0  0  0
    6.3894    5.2157    1.9496 H   0  0  0  0  0  0  0  0  0  0  0  0
    5.9231    6.8513    1.4245 H   0  0  0  0  0  0  0  0  0  0  0  0
    3.3388    7.5491    1.6741 H   0  0  0  0  0  0  0  0  0  0  0  0
    1.3798    6.4851    3.0604 H   0  0  0  0  0  0  0  0  0  0  0  0
    4.4809    3.6520    2.9243 H   0  0  0  0  0  0  0  0  0  0  0  0
    7.6120    3.6239   -0.3833 H   0  0  0  0  0  0  0  0  0  0  0  0
    9.7277    4.0677   -1.5610 H   0  0  0  0  0  0  0  0  0  0  0  0
    8.4125    8.0324   -2.4311 H   0  0  0  0  0  0  0  0  0  0  0  0
    2.1830    4.1774    3.7496 H   0  0  0  0  0  0  0  0  0  0  0  0
  1  9  2  0  0  0  0
  1  2  1  0  0  0  0
  1 29  1  0  0  0  0
  2  3  2  0  0  0  0
  2 30  1  0  0  0  0
  3  7  1  0  0  0  0
  3  4  1  0  0  0  0
  4  5  2  0  0  0  0
  4 11  1  0  0  0  0
  5  6  1  0  0  0  0
  5 31  1  0  0  0  0
  6  7  1  0  0  0  0
  7  8  2  0  0  0  0
  8  9  1  0  0  0  0
  8 10  1  0  0  0  0
  9 32  1  0  0  0  0
 11 12  1  0  0  0  0
 11 33  1  0  0  0  0
 11 34  1  0  0  0  0
 12 13  1  0  0  0  0
 13 14  1  6  0  0  0
 13 15  1  0  0  0  0
 13 21  1  0  0  0  0
 15 16  1  0  0  0  0
 15 35  1  0  0  0  0
 15 36  1  0  0  0  0
 16 20  1  0  0  0  0
 16 17  1  0  0  0  0
 17 18  2  0  0  0  0
 17 37  1  0  0  0  0
 18 19  1  0  0  0  0
 18 38  1  0  0  0  0
 19 20  2  0  0  0  0
 19 43  1  0  0  0  0
 20 39  1  0  0  0  0
 21 26  2  0  0  0  0
 21 22  1  0  0  0  0
 22 23  2  0  0  0  0
 22 40  1  0  0  0  0
 23 24  1  0  0  0  0
 23 41  1  0  0  0  0
 24 25  2  0  0  0  0
 24 28  1  0  0  0  0
 25 26  1  0  0  0  0
 25 42  1  0  0  0  0
 26 27  1  0  0  0  0
M  END
$$$$
