ZINC26573040
 OpenBabel08292219463D

 65 68  0  0  0  0  0  0  0  0999 V2000
   -0.7127    4.7488    0.8041 C   0  0  0  0  0  0  0  0  0  0  0  0
   -0.2224    3.8144    1.5803 C   0  0  0  0  0  0  0  0  0  0  0  0
   -0.6064    2.3739    1.3604 C   0  0  0  0  0  0  0  0  0  0  0  0
    0.6041    1.5659    1.1931 N   0  0  0  0  0  0  0  0  0  0  0  0
    0.5021    0.2065    0.9775 C   0  0  0  0  0  3  0  0  0  0  0  0
   -0.6942   -0.3714    0.9327 N   0  0  0  0  0  0  0  0  0  0  0  0
   -0.7926   -1.6799    0.7196 C   0  0  0  0  0  0  0  0  0  0  0  0
    0.3056   -2.4122    0.5622 N   0  0  0  0  0  0  0  0  0  0  0  0
    1.5021   -1.8351    0.6125 C   0  0  0  0  0  0  0  0  0  0  0  0
    1.6004   -0.5258    0.8202 N   0  0  0  0  0  0  0  0  0  0  0  0
    2.6423   -2.5953    0.4487 N   0  0  0  0  0  0  0  0  0  0  0  0
    3.4659   -2.0787   -0.6532 C   0  0  0  0  0  0  0  0  0  0  0  0
    4.7551   -2.8978   -0.7505 C   0  0  0  0  0  0  0  0  0  0  0  0
    4.4187   -4.3120   -0.9665 N   0  0  0  0  0  0  0  0  0  0  0  0
    3.5951   -4.8287    0.1355 C   0  0  0  0  0  0  0  0  0  0  0  0
    2.3059   -4.0095    0.2328 C   0  0  0  0  0  0  0  0  0  0  0  0
    5.6323   -5.1211   -1.1408 C   0  0  0  0  0  0  0  0  0  0  0  0
    5.2475   -6.5575   -1.3857 C   0  0  0  0  0  0  0  0  0  0  0  0
    4.2151   -6.8574   -2.2548 C   0  0  0  0  0  0  0  0  0  0  0  0
    3.8646   -8.1744   -2.4838 C   0  0  0  0  0  0  0  0  0  0  0  0
    4.5408   -9.1932   -1.8344 C   0  0  0  0  0  0  0  0  0  0  0  0
    5.5712   -8.8914   -0.9601 C   0  0  0  0  0  0  0  0  0  0  0  0
    5.9235   -7.5739   -0.7367 C   0  0  0  0  0  0  0  0  0  0  0  0
    4.1959  -10.4809   -2.0539 F   0  0  0  0  0  0  0  0  0  0  0  0
    6.4164   -4.6033   -2.3190 C   0  0  0  0  0  0  0  0  0  0  0  0
    5.7645   -4.2819   -3.4950 C   0  0  0  0  0  0  0  0  0  0  0  0
    6.4819   -3.8024   -4.5745 C   0  0  0  0  0  0  0  0  0  0  0  0
    7.8553   -3.6538   -4.4814 C   0  0  0  0  0  0  0  0  0  0  0  0
    8.5078   -3.9809   -3.3048 C   0  0  0  0  0  0  0  0  0  0  0  0
    7.7876   -4.4553   -2.2248 C   0  0  0  0  0  0  0  0  0  0  0  0
    8.5582   -3.1895   -5.5376 F   0  0  0  0  0  0  0  0  0  0  0  0
   -2.0348   -2.2790    0.6674 N   0  0  0  0  0  0  0  0  0  0  0  0
   -3.2452   -1.4720    0.8408 C   0  0  0  0  0  0  0  0  0  0  0  0
   -4.4591   -2.3593    0.7411 C   0  0  0  0  0  0  0  0  0  0  0  0
   -5.3389   -2.3772    1.7115 C   0  0  0  0  0  0  0  0  0  0  0  0
   -0.4324    5.8003    0.9646 H   0  0  0  0  0  0  0  0  0  0  0  0
   -1.4047    4.4819   -0.0082 H   0  0  0  0  0  0  0  0  0  0  0  0
    0.4696    4.0813    2.3926 H   0  0  0  0  0  0  0  0  0  0  0  0
   -1.1737    2.0089    2.2293 H   0  0  0  0  0  0  0  0  0  0  0  0
   -1.2284    2.2941    0.4566 H   0  0  0  0  0  0  0  0  0  0  0  0
    1.5943    2.0427    1.2393 H   0  0  0  0  0  0  0  0  0  0  0  0
    2.9072   -2.1590   -1.5974 H   0  0  0  0  0  0  0  0  0  0  0  0
    3.7139   -1.0241   -0.4624 H   0  0  0  0  0  0  0  0  0  0  0  0
    5.3599   -2.5309   -1.5929 H   0  0  0  0  0  0  0  0  0  0  0  0
    5.3266   -2.7944    0.1836 H   0  0  0  0  0  0  0  0  0  0  0  0
    3.3471   -5.8832   -0.0554 H   0  0  0  0  0  0  0  0  0  0  0  0
    4.1538   -4.7485    1.0797 H   0  0  0  0  0  0  0  0  0  0  0  0
    1.7007   -4.3752    1.0754 H   0  0  0  0  0  0  0  0  0  0  0  0
    1.7339   -4.1119   -0.7012 H   0  0  0  0  0  0  0  0  0  0  0  0
    6.2315   -5.0405   -0.2219 H   0  0  0  0  0  0  0  0  0  0  0  0
    3.6851   -6.0624   -2.7581 H   0  0  0  0  0  0  0  0  0  0  0  0
    3.0607   -8.4087   -3.1660 H   0  0  0  0  0  0  0  0  0  0  0  0
    6.0996   -9.6853   -0.4532 H   0  0  0  0  0  0  0  0  0  0  0  0
    6.7274   -7.3382   -0.0551 H   0  0  0  0  0  0  0  0  0  0  0  0
    4.6937   -4.4018   -3.5688 H   0  0  0  0  0  0  0  0  0  0  0  0
    5.9719   -3.5475   -5.4918 H   0  0  0  0  0  0  0  0  0  0  0  0
    9.5790   -3.8651   -3.2309 H   0  0  0  0  0  0  0  0  0  0  0  0
    8.2963   -4.7102   -1.3069 H   0  0  0  0  0  0  0  0  0  0  0  0
   -2.1161   -3.3625    0.4956 H   0  0  0  0  0  0  0  0  0  0  0  0
   -3.2249   -0.9881    1.8284 H   0  0  0  0  0  0  0  0  0  0  0  0
   -3.2882   -0.7023    0.0562 H   0  0  0  0  0  0  0  0  0  0  0  0
   -4.6064   -2.9920   -0.1466 H   0  0  0  0  0  0  0  0  0  0  0  0
   -6.2250   -3.0249    1.6387 H   0  0  0  0  0  0  0  0  0  0  0  0
   -5.1916   -1.7445    2.5992 H   0  0  0  0  0  0  0  0  0  0  0  0
   -1.6026    0.2331    1.0720 H   0  0  0  0  0  0  0  0  0  0  0  0
  1  2  2  0  0  0  0
  1 36  1  0  0  0  0
  1 37  1  0  0  0  0
  2  3  1  0  0  0  0
  2 38  1  0  0  0  0
  3  4  1  0  0  0  0
  3 39  1  0  0  0  0
  3 40  1  0  0  0  0
  4  5  1  0  0  0  0
  4 41  1  0  0  0  0
  5 10  1  0  0  0  0
  5  6  1  0  0  0  0
  6  7  1  0  0  0  0
  6 65  1  0  0  0  0
  7  8  2  0  0  0  0
  7 32  1  0  0  0  0
  8  9  1  0  0  0  0
  9 10  2  0  0  0  0
  9 11  1  0  0  0  0
 11 16  1  0  0  0  0
 11 12  1  0  0  0  0
 12 13  1  0  0  0  0
 12 42  1  0  0  0  0
 12 43  1  0  0  0  0
 13 14  1  0  0  0  0
 13 44  1  0  0  0  0
 13 45  1  0  0  0  0
 14 15  1  0  0  0  0
 14 17  1  0  0  0  0
 15 16  1  0  0  0  0
 15 46  1  0  0  0  0
 15 47  1  0  0  0  0
 16 48  1  0  0  0  0
 16 49  1  0  0  0  0
 17 18  1  0  0  0  0
 17 25  1  0  0  0  0
 17 50  1  0  0  0  0
 18 23  2  0  0  0  0
 18 19  1  0  0  0  0
 19 20  2  0  0  0  0
 19 51  1  0  0  0  0
 20 21  1  0  0  0  0
 20 52  1  0  0  0  0
 21 22  2  0  0  0  0
 21 24  1  0  0  0  0
 22 23  1  0  0  0  0
 22 53  1  0  0  0  0
 23 54  1  0  0  0  0
 25 30  2  0  0  0  0
 25 26  1  0  0  0  0
 26 27  2  0  0  0  0
 26 55  1  0  0  0  0
 27 28  1  0  0  0  0
 27 56  1  0  0  0  0
 28 29  2  0  0  0  0
 28 31  1  0  0  0  0
 29 30  1  0  0  0  0
 29 57  1  0  0  0  0
 30 58  1  0  0  0  0
 32 33  1  0  0  0  0
 32 59  1  0  0  0  0
 33 34  1  0  0  0  0
 33 60  1  0  0  0  0
 33 61  1  0  0  0  0
 34 35  2  0  0  0  0
 34 62  1  0  0  0  0
 35 63  1  0  0  0  0
 35 64  1  0  0  0  0
M  END
$$$$
