ZINC00057008
 OpenBabel08292219463D

 47 48  0  0  1  0  0  0  0  0999 V2000
   -0.0187    1.5258    0.0104 C   0  0  0  0  0  0  0  0  0  0  0  0
    0.0021   -0.0041    0.0020 C   0  0  0  0  0  0  0  0  0  0  0  0
    0.6897   -0.4778   -1.2066 N   0  3  2  0  0  0  0  0  0  0  0  0
   -0.0977   -0.1111   -2.4030 C   0  0  0  0  0  0  0  0  0  0  0  0
    0.0876   -1.3002   -3.3783 C   0  0  0  0  0  0  0  0  0  0  0  0
    0.0948   -2.5070   -2.4033 C   0  0  0  0  0  0  0  0  0  0  0  0
    0.8183   -1.9459   -1.1611 C   0  0  1  0  0  0  0  0  0  0  0  0
    0.3514   -2.3311   -0.2546 H   0  0  0  0  0  0  0  0  0  0  0  0
    2.2961   -2.3403   -1.1970 C   0  0  0  0  0  0  0  0  0  0  0  0
    3.0089   -1.6628   -0.1111 N   0  0  0  0  0  0  0  0  0  0  0  0
    4.3318   -1.8612    0.0535 C   0  0  0  0  0  0  0  0  0  0  0  0
    4.9337   -2.6023   -0.6993 O   0  0  0  0  0  0  0  0  0  0  0  0
    5.0496   -1.1789    1.1471 C   0  0  0  0  0  0  0  0  0  0  0  0
    4.3608   -0.3309    2.0180 C   0  0  0  0  0  0  0  0  0  0  0  0
    5.0369    0.3029    3.0376 C   0  0  0  0  0  0  0  0  0  0  0  0
    6.3978    0.1034    3.2039 C   0  0  0  0  0  0  0  0  0  0  0  0
    7.0907   -0.7318    2.3505 C   0  0  0  0  0  0  0  0  0  0  0  0
    6.4251   -1.3822    1.3219 C   0  0  0  0  0  0  0  0  0  0  0  0
    7.1035   -2.2073    0.4857 O   0  0  0  0  0  0  0  0  0  0  0  0
    8.5034   -2.3657    0.7254 C   0  0  0  0  0  0  0  0  0  0  0  0
    4.1669    1.3725    4.1347 S   0  0  0  0  0  0  0  0  0  0  0  0
    5.1271    2.2718    4.6717 O   0  0  0  0  0  0  0  0  0  0  0  0
    3.0123    1.8184    3.4366 O   0  0  0  0  0  0  0  0  0  0  0  0
    3.6282    0.4460    5.3971 N   0  0  0  0  0  0  0  0  0  0  0  0
    1.0039    1.9031    0.0027 H   0  0  0  0  0  0  0  0  0  0  0  0
   -0.5459    1.8868   -0.8726 H   0  0  0  0  0  0  0  0  0  0  0  0
   -0.5289    1.8773    0.9072 H   0  0  0  0  0  0  0  0  0  0  0  0
    0.5293   -0.3651    0.8851 H   0  0  0  0  0  0  0  0  0  0  0  0
   -1.0205   -0.3814    0.0098 H   0  0  0  0  0  0  0  0  0  0  0  0
   -1.1498    0.0064   -2.1435 H   0  0  0  0  0  0  0  0  0  0  0  0
    0.2896    0.8066   -2.8456 H   0  0  0  0  0  0  0  0  0  0  0  0
   -0.7473   -1.3669   -4.0759 H   0  0  0  0  0  0  0  0  0  0  0  0
    1.0351   -1.2237   -3.9118 H   0  0  0  0  0  0  0  0  0  0  0  0
   -0.9229   -2.8070   -2.1539 H   0  0  0  0  0  0  0  0  0  0  0  0
    0.6508   -3.3426   -2.8285 H   0  0  0  0  0  0  0  0  0  0  0  0
    2.3873   -3.4195   -1.0737 H   0  0  0  0  0  0  0  0  0  0  0  0
    2.7275   -2.0462   -2.1538 H   0  0  0  0  0  0  0  0  0  0  0  0
    2.5287   -1.0715    0.4895 H   0  0  0  0  0  0  0  0  0  0  0  0
    3.3000   -0.1722    1.8919 H   0  0  0  0  0  0  0  0  0  0  0  0
    6.9199    0.6046    4.0056 H   0  0  0  0  0  0  0  0  0  0  0  0
    8.1514   -0.8823    2.4865 H   0  0  0  0  0  0  0  0  0  0  0  0
    8.9974   -1.3974    0.6459 H   0  0  0  0  0  0  0  0  0  0  0  0
    8.6572   -2.7711    1.7254 H   0  0  0  0  0  0  0  0  0  0  0  0
    8.9232   -3.0494   -0.0124 H   0  0  0  0  0  0  0  0  0  0  0  0
    3.8201   -0.5046    5.4176 H   0  0  0  0  0  0  0  0  0  0  0  0
    3.1208    0.8539    6.1162 H   0  0  0  0  0  0  0  0  0  0  0  0
    1.6056   -0.0583   -1.2636 H   0  0  0  0  0  0  0  0  0  0  0  0
  1  2  1  0  0  0  0
  1 25  1  0  0  0  0
  1 26  1  0  0  0  0
  1 27  1  0  0  0  0
  2  3  1  0  0  0  0
  2 28  1  0  0  0  0
  2 29  1  0  0  0  0
  3  7  1  0  0  0  0
  3  4  1  0  0  0  0
  3 47  1  6  0  0  0
  4  5  1  0  0  0  0
  4 30  1  0  0  0  0
  4 31  1  0  0  0  0
  5  6  1  0  0  0  0
  5 32  1  0  0  0  0
  5 33  1  0  0  0  0
  6  7  1  0  0  0  0
  6 34  1  0  0  0  0
  6 35  1  0  0  0  0
  7  8  1  1  0  0  0
  7  9  1  0  0  0  0
  9 10  1  0  0  0  0
  9 36  1  0  0  0  0
  9 37  1  0  0  0  0
 10 11  1  0  0  0  0
 10 38  1  0  0  0  0
 11 12  2  0  0  0  0
 11 13  1  0  0  0  0
 13 18  2  0  0  0  0
 13 14  1  0  0  0  0
 14 15  2  0  0  0  0
 14 39  1  0  0  0  0
 15 16  1  0  0  0  0
 15 21  1  0  0  0  0
 16 17  2  0  0  0  0
 16 40  1  0  0  0  0
 17 18  1  0  0  0  0
 17 41  1  0  0  0  0
 18 19  1  0  0  0  0
 19 20  1  0  0  0  0
 20 42  1  0  0  0  0
 20 43  1  0  0  0  0
 20 44  1  0  0  0  0
 21 22  2  0  0  0  0
 21 23  2  0  0  0  0
 21 24  1  0  0  0  0
 24 45  1  0  0  0  0
 24 46  1  0  0  0  0
M  CHG  1   3   1
M  END
$$$$
