ZINC03874950
 OpenBabel08292219463D

 35 35  0  0  1  0  0  0  0  0999 V2000
    3.8069    1.5819    3.3411 C   0  0  0  0  0  0  0  0  0  0  0  0
    2.3692    1.0788    3.4856 C   0  0  0  0  0  0  0  0  0  0  0  0
    1.5195    1.6260    2.3369 C   0  0  0  0  0  0  0  0  0  0  0  0
    0.0818    1.1229    2.4815 C   0  0  1  0  0  0  0  0  0  0  0  0
    0.0820    0.0345    2.5418 H   0  0  0  0  0  0  0  0  0  0  0  0
   -0.5363    1.7040    3.7547 C   0  0  0  0  0  0  0  0  0  0  0  0
   -0.7381    1.5662    1.2682 C   0  0  0  0  0  0  0  0  0  0  0  0
   -2.0825    0.8662    1.3308 C   0  0  0  0  0  0  0  0  0  0  0  0
   -2.1612   -0.3434    1.3491 O   0  0  0  0  0  0  0  0  0  0  0  0
   -3.1880    1.6403    1.3651 N   0  0  0  0  0  0  0  0  0  0  0  0
   -3.1182    2.9762    1.3455 C   0  0  0  0  0  0  0  0  0  0  0  0
   -4.1630    3.5952    1.3796 O   0  0  0  0  0  0  0  0  0  0  0  0
   -1.9819    3.6803    1.2907 N   0  0  0  0  0  0  0  0  0  0  0  0
   -0.7721    3.0828    1.2501 C   0  0  0  0  0  0  0  0  0  0  0  0
    0.2494    3.7339    1.2014 O   0  0  0  0  0  0  0  0  0  0  0  0
   -0.0123    1.0912    0.0079 C   0  0  0  0  0  0  0  0  0  0  0  0
   -0.7513    1.5791   -1.2114 C   0  0  0  0  0  0  0  0  0  0  0  0
   -0.1218    2.2790   -2.1225 C   0  0  0  0  0  0  0  0  0  0  0  0
    4.4122    1.1920    4.1594 H   0  0  0  0  0  0  0  0  0  0  0  0
    4.2174    1.2405    2.3908 H   0  0  0  0  0  0  0  0  0  0  0  0
    3.8152    2.6714    3.3700 H   0  0  0  0  0  0  0  0  0  0  0  0
    1.9586    1.4201    4.4359 H   0  0  0  0  0  0  0  0  0  0  0  0
    2.3609   -0.0108    3.4567 H   0  0  0  0  0  0  0  0  0  0  0  0
    1.9300    1.2846    1.3867 H   0  0  0  0  0  0  0  0  0  0  0  0
    1.5277    2.7155    2.3659 H   0  0  0  0  0  0  0  0  0  0  0  0
    0.0907    1.4530    4.6103 H   0  0  0  0  0  0  0  0  0  0  0  0
   -0.6076    2.7877    3.6621 H   0  0  0  0  0  0  0  0  0  0  0  0
   -1.5323    1.2854    3.8989 H   0  0  0  0  0  0  0  0  0  0  0  0
   -4.0589    1.2152    1.4056 H   0  0  0  0  0  0  0  0  0  0  0  0
   -2.0287    4.6491    1.2802 H   0  0  0  0  0  0  0  0  0  0  0  0
    0.0247    0.0019   -0.0013 H   0  0  0  0  0  0  0  0  0  0  0  0
    1.0024    1.4892    0.0012 H   0  0  0  0  0  0  0  0  0  0  0  0
   -1.8000    1.3518   -1.3342 H   0  0  0  0  0  0  0  0  0  0  0  0
   -0.6514    2.6286   -2.9963 H   0  0  0  0  0  0  0  0  0  0  0  0
    0.9269    2.5063   -1.9997 H   0  0  0  0  0  0  0  0  0  0  0  0
  1  2  1  0  0  0  0
  1 19  1  0  0  0  0
  1 20  1  0  0  0  0
  1 21  1  0  0  0  0
  2  3  1  0  0  0  0
  2 22  1  0  0  0  0
  2 23  1  0  0  0  0
  3  4  1  0  0  0  0
  3 24  1  0  0  0  0
  3 25  1  0  0  0  0
  4  5  1  1  0  0  0
  4  6  1  0  0  0  0
  4  7  1  0  0  0  0
  6 26  1  0  0  0  0
  6 27  1  0  0  0  0
  6 28  1  0  0  0  0
  7 14  1  0  0  0  0
  7  8  1  0  0  0  0
  7 16  1  0  0  0  0
  8  9  2  0  0  0  0
  8 10  1  0  0  0  0
 10 11  1  0  0  0  0
 10 29  1  0  0  0  0
 11 12  2  0  0  0  0
 11 13  1  0  0  0  0
 13 14  1  0  0  0  0
 13 30  1  0  0  0  0
 14 15  2  0  0  0  0
 16 17  1  0  0  0  0
 16 31  1  0  0  0  0
 16 32  1  0  0  0  0
 17 18  2  0  0  0  0
 17 33  1  0  0  0  0
 18 34  1  0  0  0  0
 18 35  1  0  0  0  0
M  END
$$$$
