ZINC33902346
 OpenBabel08292219463D

 52 55  0  0  1  0  0  0  0  0999 V2000
   -1.2504    0.8000    0.4110 C   0  0  0  0  0  0  0  0  0  0  0  0
   -0.0366    0.0007    0.0123 C   0  0  0  0  0  0  0  0  0  0  0  0
    0.9231   -0.0452    0.7439 O   0  0  0  0  0  0  0  0  0  0  0  0
   -0.0204   -0.7411   -1.2993 C   0  0  1  0  0  0  0  0  0  0  0  0
    1.4371   -0.9439   -1.7835 C   0  0  0  0  0  0  0  0  0  0  0  0
    1.6342   -2.4755   -1.9499 C   0  0  0  0  0  0  0  0  0  0  0  0
    0.2043   -2.9845   -2.1617 C   0  0  2  0  0  0  0  0  0  0  0  0
   -0.1354   -2.7542   -3.1715 H   0  0  0  0  0  0  0  0  0  0  0  0
   -0.5840   -2.1465   -1.1185 C   0  0  2  0  0  0  0  0  0  0  0  0
   -2.0607   -2.3284   -1.4079 C   0  0  0  0  0  0  0  0  0  0  0  0
   -2.3960   -3.8110   -1.1703 C   0  0  0  0  0  0  0  0  0  0  0  0
   -1.5335   -4.7181   -2.0400 C   0  0  1  0  0  0  0  0  0  0  0  0
   -1.7725   -4.5360   -3.0878 H   0  0  0  0  0  0  0  0  0  0  0  0
   -0.0312   -4.4492   -1.8468 C   0  0  1  0  0  0  0  0  0  0  0  0
    0.2362   -4.6481   -0.8090 H   0  0  0  0  0  0  0  0  0  0  0  0
    0.7715   -5.3291   -2.7636 C   0  0  0  0  0  0  0  0  0  0  0  0
    0.3339   -6.5329   -3.1277 C   0  0  0  0  0  0  0  0  0  0  0  0
   -0.9504   -7.0468   -2.6562 C   0  0  0  0  0  0  0  0  0  0  0  0
   -1.3641   -8.2793   -3.0356 C   0  0  0  0  0  0  0  0  0  0  0  0
   -2.5986   -8.8040   -2.6222 C   0  0  0  0  0  0  0  0  0  0  0  0
   -2.9258   -9.9193   -2.9750 O   0  0  0  0  0  0  0  0  0  0  0  0
   -3.5220   -7.9987   -1.7451 C   0  0  0  0  0  0  0  0  0  0  0  0
   -3.2814   -6.5074   -2.0019 C   0  0  0  0  0  0  0  0  0  0  0  0
   -1.8133   -6.1863   -1.7144 C   0  0  2  0  0  0  0  0  0  0  0  0
   -1.4699   -6.4608   -0.2489 C   0  0  0  0  0  0  0  0  0  0  0  0
   -0.2710   -2.6509    0.2917 C   0  0  0  0  0  0  0  0  0  0  0  0
   -0.7753   -0.0273   -2.2805 O   0  0  0  0  0  0  0  0  0  0  0  0
   -1.1499    1.8212    0.0434 H   0  0  0  0  0  0  0  0  0  0  0  0
   -2.1425    0.3450   -0.0194 H   0  0  0  0  0  0  0  0  0  0  0  0
   -1.3368    0.8118    1.4975 H   0  0  0  0  0  0  0  0  0  0  0  0
    1.5873   -0.4413   -2.7390 H   0  0  0  0  0  0  0  0  0  0  0  0
    2.1351   -0.5552   -1.0420 H   0  0  0  0  0  0  0  0  0  0  0  0
    2.2536   -2.6923   -2.8203 H   0  0  0  0  0  0  0  0  0  0  0  0
    2.0683   -2.9087   -1.0488 H   0  0  0  0  0  0  0  0  0  0  0  0
   -2.6496   -1.7030   -0.7368 H   0  0  0  0  0  0  0  0  0  0  0  0
   -2.2709   -2.0623   -2.4438 H   0  0  0  0  0  0  0  0  0  0  0  0
   -2.2236   -4.0526   -0.1214 H   0  0  0  0  0  0  0  0  0  0  0  0
   -3.4461   -3.9821   -1.4072 H   0  0  0  0  0  0  0  0  0  0  0  0
    1.7227   -4.9776   -3.1351 H   0  0  0  0  0  0  0  0  0  0  0  0
    0.9392   -7.1407   -3.7840 H   0  0  0  0  0  0  0  0  0  0  0  0
   -0.7272   -8.8742   -3.6736 H   0  0  0  0  0  0  0  0  0  0  0  0
   -4.5570   -8.2469   -1.9805 H   0  0  0  0  0  0  0  0  0  0  0  0
   -3.3204   -8.2256   -0.6982 H   0  0  0  0  0  0  0  0  0  0  0  0
   -3.5334   -6.2692   -3.0353 H   0  0  0  0  0  0  0  0  0  0  0  0
   -3.9002   -5.9159   -1.3271 H   0  0  0  0  0  0  0  0  0  0  0  0
   -2.0800   -5.8247    0.3924 H   0  0  0  0  0  0  0  0  0  0  0  0
   -1.6698   -7.5072   -0.0187 H   0  0  0  0  0  0  0  0  0  0  0  0
   -0.4153   -6.2458   -0.0764 H   0  0  0  0  0  0  0  0  0  0  0  0
   -0.8033   -2.0415    1.0220 H   0  0  0  0  0  0  0  0  0  0  0  0
   -0.5884   -3.6895    0.3848 H   0  0  0  0  0  0  0  0  0  0  0  0
    0.8015   -2.5811    0.4728 H   0  0  0  0  0  0  0  0  0  0  0  0
   -0.4505    0.8671   -2.4525 H   0  0  0  0  0  0  0  0  0  0  0  0
  1  2  1  0  0  0  0
  1 28  1  0  0  0  0
  1 29  1  0  0  0  0
  1 30  1  0  0  0  0
  2  3  2  0  0  0  0
  4  2  1  1  0  0  0
  4  9  1  0  0  0  0
  4  5  1  0  0  0  0
  4 27  1  0  0  0  0
  5  6  1  0  0  0  0
  5 31  1  0  0  0  0
  5 32  1  0  0  0  0
  6  7  1  0  0  0  0
  6 33  1  0  0  0  0
  6 34  1  0  0  0  0
  7  8  1  6  0  0  0
  7 14  1  0  0  0  0
  7  9  1  0  0  0  0
  9 10  1  0  0  0  0
  9 26  1  1  0  0  0
 10 11  1  0  0  0  0
 10 35  1  0  0  0  0
 10 36  1  0  0  0  0
 11 12  1  0  0  0  0
 11 37  1  0  0  0  0
 11 38  1  0  0  0  0
 12 13  1  6  0  0  0
 12 24  1  0  0  0  0
 12 14  1  0  0  0  0
 14 15  1  1  0  0  0
 14 16  1  0  0  0  0
 16 17  2  0  0  0  0
 16 39  1  0  0  0  0
 17 18  1  0  0  0  0
 17 40  1  0  0  0  0
 18 24  1  0  0  0  0
 18 19  2  0  0  0  0
 19 20  1  0  0  0  0
 19 41  1  0  0  0  0
 20 21  2  0  0  0  0
 20 22  1  0  0  0  0
 22 23  1  0  0  0  0
 22 42  1  0  0  0  0
 22 43  1  0  0  0  0
 23 24  1  0  0  0  0
 23 44  1  0  0  0  0
 23 45  1  0  0  0  0
 24 25  1  1  0  0  0
 25 46  1  0  0  0  0
 25 47  1  0  0  0  0
 25 48  1  0  0  0  0
 26 49  1  0  0  0  0
 26 50  1  0  0  0  0
 26 51  1  0  0  0  0
 27 52  1  0  0  0  0
M  END
$$$$
