ZINC96006020
 OpenBabel08292219463D

113119  0  0  1  0  0  0  0  0999 V2000
    0.2260    1.1680    0.6070 C   0  0  0  0  0  0  0  0  0  0  0  0
    0.2719   -0.3452    0.6894 C   0  0  0  0  0  0  0  0  0  0  0  0
   -0.8416   -1.0756    0.7143 C   0  0  0  0  0  0  0  0  0  0  0  0
   -2.1561   -0.3598    0.8179 C   0  0  2  0  0  0  0  0  0  0  0  0
   -2.1445    0.5008    0.1071 H   0  0  0  0  0  0  0  0  0  0  0  0
   -2.2379    0.2037    2.2213 C   0  0  0  0  0  0  0  0  0  0  0  0
   -2.4890    1.3913    2.3822 O   0  0  0  0  0  0  0  0  0  0  0  0
   -2.0304   -0.6732    3.4272 C   0  0  2  0  0  0  0  0  0  0  0  0
   -2.5580    0.0707    4.6562 C   0  0  2  0  0  0  0  0  0  0  0  0
   -3.4869    0.5685    4.3615 H   0  0  0  0  0  0  0  0  0  0  0  0
   -1.5487    1.1141    5.1146 C   0  0  0  0  0  0  0  0  0  0  0  0
   -0.3049    0.3918    5.6241 C   0  0  2  0  0  0  0  0  0  0  0  0
    0.5128    1.1142    5.7952 H   0  0  0  0  0  0  0  0  0  0  0  0
    0.1523   -0.7831    4.7823 C   0  0  2  0  0  0  0  0  0  0  0  0
   -0.6508   -1.2224    3.5763 C   0  0  1  0  0  0  0  0  0  0  0  0
   -0.0943   -0.7032    2.7722 H   0  0  0  0  0  0  0  0  0  0  0  0
   -0.4115   -2.6953    3.2562 C   0  0  1  0  0  0  0  0  0  0  0  0
   -1.2838   -3.3312    3.3461 H   0  0  0  0  0  0  0  0  0  0  0  0
    0.2499   -2.9014    1.8793 C   0  0  1  0  0  0  0  0  0  0  0  0
   -0.6594   -2.5547    0.7104 C   0  0  0  0  0  0  0  0  0  0  0  0
    0.0188   -2.9892   -0.6022 C   0  0  0  0  0  0  0  0  0  0  0  0
   -1.9444   -3.3671    0.8112 C   0  0  0  0  0  0  0  0  0  0  0  0
    1.5871   -2.1967    1.7758 C   0  0  0  0  0  0  0  0  0  0  0  0
    1.6139   -1.0316    0.7991 C   0  0  2  0  0  0  0  0  0  0  0  0
    1.9468   -1.3707   -0.1843 H   0  0  0  0  0  0  0  0  0  0  0  0
    2.5791   -0.0699    1.2631 O   0  0  0  0  0  0  0  0  0  0  0  0
    3.2333    0.6367    0.3280 C   0  0  0  0  0  0  0  0  0  0  0  0
    3.0002    0.4507   -0.8429 O   0  0  0  0  0  0  0  0  0  0  0  0
    4.2587    1.6619    0.7385 C   0  0  1  0  0  0  0  0  0  0  0  0
    3.8057    2.3722    1.4301 H   0  0  0  0  0  0  0  0  0  0  0  0
    5.4340    0.9618    1.4236 C   0  0  2  0  0  0  0  0  0  0  0  0
    5.0766    0.4317    2.3064 H   0  0  0  0  0  0  0  0  0  0  0  0
    6.4594    1.9870    1.8341 C   0  0  0  0  0  0  0  0  0  0  0  0
    7.3435    2.4930    0.8995 C   0  0  0  0  0  0  0  0  0  0  0  0
    8.2840    3.4334    1.2761 C   0  0  0  0  0  0  0  0  0  0  0  0
    8.3403    3.8683    2.5871 C   0  0  0  0  0  0  0  0  0  0  0  0
    7.4556    3.3630    3.5214 C   0  0  0  0  0  0  0  0  0  0  0  0
    6.5123    2.4257    3.1439 C   0  0  0  0  0  0  0  0  0  0  0  0
    6.0430    0.0072    0.4940 N   0  0  0  0  0  0  0  0  0  0  0  0
    6.7249   -1.0541    0.9685 C   0  0  0  0  0  0  0  0  0  0  0  0
    6.8348   -1.2191    2.1677 O   0  0  0  0  0  0  0  0  0  0  0  0
    7.3395   -2.0174    0.0303 C   0  0  0  0  0  0  0  0  0  0  0  0
    7.2202   -1.8276   -1.3473 C   0  0  0  0  0  0  0  0  0  0  0  0
    7.7964   -2.7301   -2.2173 C   0  0  0  0  0  0  0  0  0  0  0  0
    8.4909   -3.8216   -1.7269 C   0  0  0  0  0  0  0  0  0  0  0  0
    8.6125   -4.0158   -0.3624 C   0  0  0  0  0  0  0  0  0  0  0  0
    8.0464   -3.1175    0.5184 C   0  0  0  0  0  0  0  0  0  0  0  0
    4.7273    2.3569   -0.4189 O   0  0  0  0  0  0  0  0  0  0  0  0
    0.5194   -4.3115    1.7714 O   0  0  0  0  0  0  0  0  0  0  0  0
    0.5213   -3.2327    4.2304 O   0  0  0  0  0  0  0  0  0  0  0  0
    0.4038   -4.5401    4.5332 C   0  0  0  0  0  0  0  0  0  0  0  0
   -0.4545   -5.2127    3.9981 O   0  0  0  0  0  0  0  0  0  0  0  0
    1.3188   -5.1557    5.5161 C   0  0  0  0  0  0  0  0  0  0  0  0
    2.3029   -4.3842    6.1374 C   0  0  0  0  0  0  0  0  0  0  0  0
    3.1540   -4.9654    7.0542 C   0  0  0  0  0  0  0  0  0  0  0  0
    3.0342   -6.3099    7.3587 C   0  0  0  0  0  0  0  0  0  0  0  0
    2.0615   -7.0804    6.7464 C   0  0  0  0  0  0  0  0  0  0  0  0
    1.1998   -6.5105    5.8323 C   0  0  0  0  0  0  0  0  0  0  0  0
   -0.1430   -1.5912    6.0507 C   0  0  0  0  0  0  0  0  0  0  0  0
   -0.5254   -0.4215    6.7688 O   0  0  0  0  0  0  0  0  0  0  0  0
    1.5565   -0.7045    4.4810 O   0  0  0  0  0  0  0  0  0  0  0  0
    2.3899   -0.4926    5.5117 C   0  0  0  0  0  0  0  0  0  0  0  0
    1.9495   -0.3771    6.6309 O   0  0  0  0  0  0  0  0  0  0  0  0
    3.8749   -0.3986    5.2729 C   0  0  0  0  0  0  0  0  0  0  0  0
   -2.8401   -0.8690    5.6851 O   0  0  0  0  0  0  0  0  0  0  0  0
   -3.0494   -1.7956    3.3128 C   0  0  0  0  0  0  0  0  0  0  0  0
   -3.3074   -1.1104    0.4641 O   0  0  0  0  0  0  0  0  0  0  0  0
   -4.3450   -0.4298   -0.0479 C   0  0  0  0  0  0  0  0  0  0  0  0
   -4.2713    0.7680   -0.1888 O   0  0  0  0  0  0  0  0  0  0  0  0
   -5.6016   -1.1596   -0.4469 C   0  0  0  0  0  0  0  0  0  0  0  0
    1.2407    1.5647    0.6415 H   0  0  0  0  0  0  0  0  0  0  0  0
   -0.2493    1.4667   -0.3274 H   0  0  0  0  0  0  0  0  0  0  0  0
   -0.3464    1.5605    1.4475 H   0  0  0  0  0  0  0  0  0  0  0  0
   -1.2763    1.7664    4.2825 H   0  0  0  0  0  0  0  0  0  0  0  0
   -1.9746    1.7204    5.9173 H   0  0  0  0  0  0  0  0  0  0  0  0
    1.0436   -2.6185   -0.6216 H   0  0  0  0  0  0  0  0  0  0  0  0
    0.0247   -4.0773   -0.6652 H   0  0  0  0  0  0  0  0  0  0  0  0
   -0.5320   -2.5792   -1.4487 H   0  0  0  0  0  0  0  0  0  0  0  0
   -2.6953   -2.9434    0.1443 H   0  0  0  0  0  0  0  0  0  0  0  0
   -1.7449   -4.3996    0.5245 H   0  0  0  0  0  0  0  0  0  0  0  0
   -2.3123   -3.3393    1.8368 H   0  0  0  0  0  0  0  0  0  0  0  0
    1.9020   -1.8566    2.7581 H   0  0  0  0  0  0  0  0  0  0  0  0
    2.3339   -2.9359    1.4451 H   0  0  0  0  0  0  0  0  0  0  0  0
    7.2995    2.1533   -0.1247 H   0  0  0  0  0  0  0  0  0  0  0  0
    8.9752    3.8282    0.5461 H   0  0  0  0  0  0  0  0  0  0  0  0
    9.0756    4.6025    2.8814 H   0  0  0  0  0  0  0  0  0  0  0  0
    7.4998    3.7024    4.5457 H   0  0  0  0  0  0  0  0  0  0  0  0
    5.8187    2.0337    3.8731 H   0  0  0  0  0  0  0  0  0  0  0  0
    5.9553    0.1389   -0.4630 H   0  0  0  0  0  0  0  0  0  0  0  0
    6.6777   -0.9764   -1.7314 H   0  0  0  0  0  0  0  0  0  0  0  0
    7.7048   -2.5844   -3.2835 H   0  0  0  0  0  0  0  0  0  0  0  0
    8.9398   -4.5253   -2.4122 H   0  0  0  0  0  0  0  0  0  0  0  0
    9.1557   -4.8700    0.0140 H   0  0  0  0  0  0  0  0  0  0  0  0
    8.1462   -3.2676    1.5833 H   0  0  0  0  0  0  0  0  0  0  0  0
    5.1433    1.7857   -1.0791 H   0  0  0  0  0  0  0  0  0  0  0  0
    1.1085   -4.6530    2.4580 H   0  0  0  0  0  0  0  0  0  0  0  0
    2.3977   -3.3348    5.9003 H   0  0  0  0  0  0  0  0  0  0  0  0
    3.9158   -4.3699    7.5352 H   0  0  0  0  0  0  0  0  0  0  0  0
    3.7031   -6.7600    8.0772 H   0  0  0  0  0  0  0  0  0  0  0  0
    1.9739   -8.1294    6.9881 H   0  0  0  0  0  0  0  0  0  0  0  0
    0.4380   -7.1120    5.3588 H   0  0  0  0  0  0  0  0  0  0  0  0
   -0.9542   -2.3151    5.9340 H   0  0  0  0  0  0  0  0  0  0  0  0
    0.7502   -2.0749    6.4671 H   0  0  0  0  0  0  0  0  0  0  0  0
    4.0808   -0.5263    4.2101 H   0  0  0  0  0  0  0  0  0  0  0  0
    4.2340    0.5779    5.5977 H   0  0  0  0  0  0  0  0  0  0  0  0
    4.3839   -1.1794    5.8380 H   0  0  0  0  0  0  0  0  0  0  0  0
   -3.1796   -0.4715    6.4986 H   0  0  0  0  0  0  0  0  0  0  0  0
   -3.1068   -2.1300    2.2769 H   0  0  0  0  0  0  0  0  0  0  0  0
   -2.7454   -2.6283    3.9471 H   0  0  0  0  0  0  0  0  0  0  0  0
   -4.0265   -1.4333    3.6323 H   0  0  0  0  0  0  0  0  0  0  0  0
   -5.4822   -2.2246   -0.2476 H   0  0  0  0  0  0  0  0  0  0  0  0
   -6.4436   -0.7745    0.1284 H   0  0  0  0  0  0  0  0  0  0  0  0
   -5.7881   -1.0076   -1.5100 H   0  0  0  0  0  0  0  0  0  0  0  0
  1  2  1  0  0  0  0
  1 71  1  0  0  0  0
  1 72  1  0  0  0  0
  1 73  1  0  0  0  0
  2 24  1  0  0  0  0
  2  3  2  0  0  0  0
  3 20  1  0  0  0  0
  3  4  1  0  0  0  0
  4  5  1  6  0  0  0
  4  6  1  0  0  0  0
  4 67  1  0  0  0  0
  6  7  2  0  0  0  0
  6  8  1  0  0  0  0
  8 15  1  0  0  0  0
  8  9  1  0  0  0  0
  8 66  1  6  0  0  0
  9 10  1  6  0  0  0
  9 11  1  0  0  0  0
  9 65  1  0  0  0  0
 11 12  1  0  0  0  0
 11 74  1  0  0  0  0
 11 75  1  0  0  0  0
 12 13  1  1  0  0  0
 12 60  1  0  0  0  0
 12 14  1  0  0  0  0
 14 15  1  0  0  0  0
 14 59  1  0  0  0  0
 14 61  1  6  0  0  0
 15 16  1  6  0  0  0
 15 17  1  0  0  0  0
 17 18  1  1  0  0  0
 17 19  1  0  0  0  0
 17 50  1  0  0  0  0
 19 20  1  0  0  0  0
 19 23  1  0  0  0  0
 19 49  1  6  0  0  0
 20 21  1  0  0  0  0
 20 22  1  0  0  0  0
 21 76  1  0  0  0  0
 21 77  1  0  0  0  0
 21 78  1  0  0  0  0
 22 79  1  0  0  0  0
 22 80  1  0  0  0  0
 22 81  1  0  0  0  0
 23 24  1  0  0  0  0
 23 82  1  0  0  0  0
 23 83  1  0  0  0  0
 24 25  1  6  0  0  0
 24 26  1  0  0  0  0
 26 27  1  0  0  0  0
 27 28  2  0  0  0  0
 27 29  1  0  0  0  0
 29 30  1  1  0  0  0
 29 31  1  0  0  0  0
 29 48  1  0  0  0  0
 31 32  1  1  0  0  0
 31 33  1  0  0  0  0
 31 39  1  0  0  0  0
 33 38  2  0  0  0  0
 33 34  1  0  0  0  0
 34 35  2  0  0  0  0
 34 84  1  0  0  0  0
 35 36  1  0  0  0  0
 35 85  1  0  0  0  0
 36 37  2  0  0  0  0
 36 86  1  0  0  0  0
 37 38  1  0  0  0  0
 37 87  1  0  0  0  0
 38 88  1  0  0  0  0
 39 40  1  0  0  0  0
 39 89  1  0  0  0  0
 40 41  2  0  0  0  0
 40 42  1  0  0  0  0
 42 47  2  0  0  0  0
 42 43  1  0  0  0  0
 43 44  2  0  0  0  0
 43 90  1  0  0  0  0
 44 45  1  0  0  0  0
 44 91  1  0  0  0  0
 45 46  2  0  0  0  0
 45 92  1  0  0  0  0
 46 47  1  0  0  0  0
 46 93  1  0  0  0  0
 47 94  1  0  0  0  0
 48 95  1  0  0  0  0
 49 96  1  0  0  0  0
 50 51  1  0  0  0  0
 51 52  2  0  0  0  0
 51 53  1  0  0  0  0
 53 58  2  0  0  0  0
 53 54  1  0  0  0  0
 54 55  2  0  0  0  0
 54 97  1  0  0  0  0
 55 56  1  0  0  0  0
 55 98  1  0  0  0  0
 56 57  2  0  0  0  0
 56 99  1  0  0  0  0
 57 58  1  0  0  0  0
 57100  1  0  0  0  0
 58101  1  0  0  0  0
 59 60  1  0  0  0  0
 59102  1  0  0  0  0
 59103  1  0  0  0  0
 61 62  1  0  0  0  0
 62 63  2  0  0  0  0
 62 64  1  0  0  0  0
 64104  1  0  0  0  0
 64105  1  0  0  0  0
 64106  1  0  0  0  0
 65107  1  0  0  0  0
 66108  1  0  0  0  0
 66109  1  0  0  0  0
 66110  1  0  0  0  0
 67 68  1  0  0  0  0
 68 69  2  0  0  0  0
 68 70  1  0  0  0  0
 70111  1  0  0  0  0
 70112  1  0  0  0  0
 70113  1  0  0  0  0
M  END
$$$$
