ZINC05459678
 OpenBabel08292219463D

 61 64  0  0  1  0  0  0  0  0999 V2000
    0.2248   11.6463   -5.2036 C   0  0  0  0  0  0  0  0  0  0  0  0
    0.1106   11.3605   -3.7049 C   0  0  0  0  0  0  0  0  0  0  0  0
   -0.0299    9.8762   -3.4858 C   0  0  0  0  0  0  0  0  0  0  0  0
   -0.0380    9.1245   -4.4309 O   0  0  0  0  0  0  0  0  0  0  0  0
   -0.1604    9.3302   -2.0881 C   0  0  1  0  0  0  0  0  0  0  0  0
   -1.3898    9.9546   -1.3778 C   0  0  1  0  0  0  0  0  0  0  0  0
   -2.0439   10.4282   -2.1082 H   0  0  0  0  0  0  0  0  0  0  0  0
   -2.1274    8.7852   -0.6721 C   0  0  0  0  0  0  0  0  0  0  0  0
   -1.1345    7.6165   -0.7546 C   0  0  2  0  0  0  0  0  0  0  0  0
   -0.3630    7.7764    0.0261 H   0  0  0  0  0  0  0  0  0  0  0  0
   -0.5008    7.8298   -2.1437 C   0  0  2  0  0  0  0  0  0  0  0  0
    0.6418    6.8894   -2.3926 C   0  0  0  0  0  0  0  0  0  0  0  0
    0.3953    5.5056   -1.7651 C   0  0  1  0  0  0  0  0  0  0  0  0
    0.9269    5.4480   -0.8076 H   0  0  0  0  0  0  0  0  0  0  0  0
   -1.0781    5.2387   -1.5469 C   0  0  2  0  0  0  0  0  0  0  0  0
   -1.5870    5.3381   -2.5060 H   0  0  0  0  0  0  0  0  0  0  0  0
   -1.6934    6.2407   -0.5739 C   0  0  2  0  0  0  0  0  0  0  0  0
   -1.4399    5.9030    0.4521 H   0  0  0  0  0  0  0  0  0  0  0  0
   -3.2131    6.1413   -0.7194 C   0  0  0  0  0  0  0  0  0  0  0  0
   -3.6511    4.8225   -0.0799 C   0  0  0  0  0  0  0  0  0  0  0  0
   -2.6458    3.7230   -0.2732 C   0  0  0  0  0  0  0  0  0  0  0  0
   -2.8911    2.5574    0.3641 C   0  0  0  0  0  0  0  0  0  0  0  0
   -1.8956    1.4682    0.2206 C   0  0  0  0  0  0  0  0  0  0  0  0
   -2.1971    0.2894    0.2580 O   0  0  0  0  0  0  0  0  0  0  0  0
   -0.4795    1.9060    0.0892 C   0  0  0  0  0  0  0  0  0  0  0  0
   -0.2531    3.0734   -0.5430 C   0  0  0  0  0  0  0  0  0  0  0  0
   -1.4110    3.8336   -1.1050 C   0  0  2  0  0  0  0  0  0  0  0  0
   -1.7715    3.1150   -2.4105 C   0  0  0  0  0  0  0  0  0  0  0  0
    0.9498    4.5166   -2.6436 O   0  0  0  0  0  0  0  0  0  0  0  0
   -1.5495    7.6862   -3.2617 C   0  0  0  0  0  0  0  0  0  0  0  0
   -0.9247   10.9853   -0.3464 C   0  0  0  0  0  0  0  0  0  0  0  0
    1.1022    9.6079   -1.2787 C   0  0  0  0  0  0  0  0  0  0  0  0
    0.3264   12.7200   -5.3620 H   0  0  0  0  0  0  0  0  0  0  0  0
    1.0997   11.1353   -5.6053 H   0  0  0  0  0  0  0  0  0  0  0  0
   -0.6706   11.2874   -5.7111 H   0  0  0  0  0  0  0  0  0  0  0  0
   -0.6922   11.8293   -3.3364 H   0  0  0  0  0  0  0  0  0  0  0  0
    1.0060   11.7195   -3.1973 H   0  0  0  0  0  0  0  0  0  0  0  0
   -2.3272    9.0423    0.3713 H   0  0  0  0  0  0  0  0  0  0  0  0
   -3.0590    8.5488   -1.1832 H   0  0  0  0  0  0  0  0  0  0  0  0
    1.5904    7.2801   -2.0096 H   0  0  0  0  0  0  0  0  0  0  0  0
    0.7709    6.7572   -3.4811 H   0  0  0  0  0  0  0  0  0  0  0  0
   -3.6957    6.9740   -0.2064 H   0  0  0  0  0  0  0  0  0  0  0  0
   -3.4915    6.1459   -1.7719 H   0  0  0  0  0  0  0  0  0  0  0  0
   -3.7970    4.9795    0.9909 H   0  0  0  0  0  0  0  0  0  0  0  0
   -4.6005    4.5134   -0.5196 H   0  0  0  0  0  0  0  0  0  0  0  0
   -3.7917    2.4211    0.9602 H   0  0  0  0  0  0  0  0  0  0  0  0
    0.3367    1.3083    0.4855 H   0  0  0  0  0  0  0  0  0  0  0  0
    0.7651    3.4382   -0.6437 H   0  0  0  0  0  0  0  0  0  0  0  0
   -2.0395    2.0809   -2.1940 H   0  0  0  0  0  0  0  0  0  0  0  0
   -2.6161    3.6184   -2.8810 H   0  0  0  0  0  0  0  0  0  0  0  0
   -0.9152    3.1349   -3.0846 H   0  0  0  0  0  0  0  0  0  0  0  0
    1.8929    4.6339   -2.8224 H   0  0  0  0  0  0  0  0  0  0  0  0
   -2.1832    6.8233   -3.0568 H   0  0  0  0  0  0  0  0  0  0  0  0
   -2.1630    8.5862   -3.3022 H   0  0  0  0  0  0  0  0  0  0  0  0
   -1.0446    7.5473   -4.2178 H   0  0  0  0  0  0  0  0  0  0  0  0
   -0.3602   11.7716   -0.8475 H   0  0  0  0  0  0  0  0  0  0  0  0
   -1.7925   11.4205    0.1492 H   0  0  0  0  0  0  0  0  0  0  0  0
   -0.2901   10.4978    0.3937 H   0  0  0  0  0  0  0  0  0  0  0  0
    1.9459    9.0870   -1.7314 H   0  0  0  0  0  0  0  0  0  0  0  0
    1.2994   10.6798   -1.2696 H   0  0  0  0  0  0  0  0  0  0  0  0
    0.9635    9.2552   -0.2567 H   0  0  0  0  0  0  0  0  0  0  0  0
  1  2  1  0  0  0  0
  1 33  1  0  0  0  0
  1 34  1  0  0  0  0
  1 35  1  0  0  0  0
  2  3  1  0  0  0  0
  2 36  1  0  0  0  0
  2 37  1  0  0  0  0
  3  4  2  0  0  0  0
  5  3  1  6  0  0  0
  5 11  1  0  0  0  0
  5  6  1  0  0  0  0
  5 32  1  0  0  0  0
  6  7  1  6  0  0  0
  6  8  1  0  0  0  0
  6 31  1  0  0  0  0
  8  9  1  0  0  0  0
  8 38  1  0  0  0  0
  8 39  1  0  0  0  0
  9 10  1  1  0  0  0
  9 17  1  0  0  0  0
  9 11  1  0  0  0  0
 11 12  1  0  0  0  0
 11 30  1  6  0  0  0
 12 13  1  0  0  0  0
 12 40  1  0  0  0  0
 12 41  1  0  0  0  0
 13 14  1  1  0  0  0
 13 15  1  0  0  0  0
 13 29  1  0  0  0  0
 15 16  1  6  0  0  0
 15 27  1  0  0  0  0
 15 17  1  0  0  0  0
 17 18  1  1  0  0  0
 17 19  1  0  0  0  0
 19 20  1  0  0  0  0
 19 42  1  0  0  0  0
 19 43  1  0  0  0  0
 20 21  1  0  0  0  0
 20 44  1  0  0  0  0
 20 45  1  0  0  0  0
 21 27  1  0  0  0  0
 21 22  2  0  0  0  0
 22 23  1  0  0  0  0
 22 46  1  0  0  0  0
 23 24  2  0  0  0  0
 23 25  1  0  0  0  0
 25 26  2  0  0  0  0
 25 47  1  0  0  0  0
 26 27  1  0  0  0  0
 26 48  1  0  0  0  0
 27 28  1  6  0  0  0
 28 49  1  0  0  0  0
 28 50  1  0  0  0  0
 28 51  1  0  0  0  0
 29 52  1  0  0  0  0
 30 53  1  0  0  0  0
 30 54  1  0  0  0  0
 30 55  1  0  0  0  0
 31 56  1  0  0  0  0
 31 57  1  0  0  0  0
 31 58  1  0  0  0  0
 32 59  1  0  0  0  0
 32 60  1  0  0  0  0
 32 61  1  0  0  0  0
M  END
$$$$
