ZINC03831106
 OpenBabel08292219463D

 30 30  0  0  1  0  0  0  0  0999 V2000
   -1.9419    0.0174   -1.9999 C   0  0  0  0  0  0  0  0  0  0  0  0
   -2.3268    0.5253   -0.6090 C   0  0  0  0  0  0  0  0  0  0  0  0
   -1.3060    1.5666   -0.1457 C   0  0  0  0  0  0  0  0  0  0  0  0
    0.0447    0.9076    0.0375 C   0  0  0  0  0  0  0  0  0  0  0  0
    0.1525   -0.2880    0.1687 O   0  0  0  0  0  0  0  0  0  0  0  0
    1.2561    1.8192    0.0422 C   0  0  1  0  0  0  0  0  0  0  0  0
    2.0847    1.2718    0.1595 H   0  0  0  0  0  0  0  0  0  0  0  0
    1.2939    2.5614   -1.2950 C   0  0  0  0  0  0  0  0  0  0  0  0
   -0.0145    3.0967   -1.6358 N   0  0  0  0  0  0  0  0  0  0  0  0
   -1.1812    2.6450   -1.1820 C   0  0  0  0  0  0  0  0  0  0  0  0
   -2.1981    3.1283   -1.6328 O   0  0  0  0  0  0  0  0  0  0  0  0
    1.1425    2.8244    1.1900 C   0  0  0  0  0  0  0  0  0  0  0  0
   -1.7606    2.1831    1.1787 C   0  0  0  0  0  0  0  0  0  0  0  0
   -1.7520    1.1109    2.2700 C   0  0  0  0  0  0  0  0  0  0  0  0
   -2.0275    0.8308   -2.7203 H   0  0  0  0  0  0  0  0  0  0  0  0
   -0.9144   -0.3460   -1.9826 H   0  0  0  0  0  0  0  0  0  0  0  0
   -2.6096   -0.7947   -2.2878 H   0  0  0  0  0  0  0  0  0  0  0  0
   -2.3384   -0.3092    0.0922 H   0  0  0  0  0  0  0  0  0  0  0  0
   -3.3167    0.9798   -0.6492 H   0  0  0  0  0  0  0  0  0  0  0  0
    2.0091    3.3813   -1.2285 H   0  0  0  0  0  0  0  0  0  0  0  0
    1.6120    1.8724   -2.0773 H   0  0  0  0  0  0  0  0  0  0  0  0
   -0.0391    3.8488   -2.2479 H   0  0  0  0  0  0  0  0  0  0  0  0
    0.9099    2.2957    2.1143 H   0  0  0  0  0  0  0  0  0  0  0  0
    2.0879    3.3552    1.3030 H   0  0  0  0  0  0  0  0  0  0  0  0
    0.3489    3.5386    0.9703 H   0  0  0  0  0  0  0  0  0  0  0  0
   -1.0817    2.9894    1.4561 H   0  0  0  0  0  0  0  0  0  0  0  0
   -2.7697    2.5800    1.0672 H   0  0  0  0  0  0  0  0  0  0  0  0
   -2.3785    0.2738    1.9619 H   0  0  0  0  0  0  0  0  0  0  0  0
   -0.7316    0.7619    2.4285 H   0  0  0  0  0  0  0  0  0  0  0  0
   -2.1398    1.5329    3.1972 H   0  0  0  0  0  0  0  0  0  0  0  0
  1  2  1  0  0  0  0
  1 15  1  0  0  0  0
  1 16  1  0  0  0  0
  1 17  1  0  0  0  0
  2  3  1  0  0  0  0
  2 18  1  0  0  0  0
  2 19  1  0  0  0  0
  3 10  1  0  0  0  0
  3  4  1  0  0  0  0
  3 13  1  0  0  0  0
  4  5  2  0  0  0  0
  4  6  1  0  0  0  0
  6  7  1  1  0  0  0
  6  8  1  0  0  0  0
  6 12  1  0  0  0  0
  8  9  1  0  0  0  0
  8 20  1  0  0  0  0
  8 21  1  0  0  0  0
  9 10  1  0  0  0  0
  9 22  1  0  0  0  0
 10 11  2  0  0  0  0
 12 23  1  0  0  0  0
 12 24  1  0  0  0  0
 12 25  1  0  0  0  0
 13 14  1  0  0  0  0
 13 26  1  0  0  0  0
 13 27  1  0  0  0  0
 14 28  1  0  0  0  0
 14 29  1  0  0  0  0
 14 30  1  0  0  0  0
M  END
$$$$
