ZINC01532529
 OpenBabel08292219463D

 20 19  0  0  1  0  0  0  0  0999 V2000
   -0.0225    1.8097    0.0120 C   0  0  0  0  0  0  0  0  0  0  0  0
    0.0021   -0.0041    0.0020 S   0  0  0  0  0  0  0  0  0  0  0  0
    0.8734   -0.4227   -1.5329 C   0  0  0  0  0  0  0  0  0  0  0  0
    0.9658   -1.9439   -1.6683 C   0  0  0  0  0  0  0  0  0  0  0  0
    1.7007   -2.2970   -2.9630 C   0  0  1  0  0  0  0  0  0  0  0  0
    2.6705   -1.7997   -2.9775 H   0  0  0  0  0  0  0  0  0  0  0  0
    1.9001   -3.7889   -3.0366 C   0  0  0  0  0  0  0  0  0  0  0  0
    1.0552   -4.4916   -3.5647 O   0  0  0  0  0  0  0  0  0  0  0  0
    2.9063   -4.2933   -2.5680 O   0  0  0  0  0  1  0  0  0  0  0  0
    0.9049   -1.8519   -4.1148 N   0  3  0  0  0  0  0  0  0  0  0  0
    1.0001    2.1870    0.0043 H   0  0  0  0  0  0  0  0  0  0  0  0
   -0.5497    2.1708   -0.8711 H   0  0  0  0  0  0  0  0  0  0  0  0
   -0.5327    2.1613    0.9088 H   0  0  0  0  0  0  0  0  0  0  0  0
    0.3274   -0.0147   -2.3835 H   0  0  0  0  0  0  0  0  0  0  0  0
    1.8772    0.0015   -1.5082 H   0  0  0  0  0  0  0  0  0  0  0  0
    1.5118   -2.3519   -0.8177 H   0  0  0  0  0  0  0  0  0  0  0  0
   -0.0380   -2.3681   -1.6931 H   0  0  0  0  0  0  0  0  0  0  0  0
    0.7714   -0.8530   -4.0655 H   0  0  0  0  0  0  0  0  0  0  0  0
    1.3896   -2.0848   -4.9686 H   0  0  0  0  0  0  0  0  0  0  0  0
    0.0072   -2.3123   -4.1014 H   0  0  0  0  0  0  0  0  0  0  0  0
  1  2  1  0  0  0  0
  1 11  1  0  0  0  0
  1 12  1  0  0  0  0
  1 13  1  0  0  0  0
  2  3  1  0  0  0  0
  3  4  1  0  0  0  0
  3 14  1  0  0  0  0
  3 15  1  0  0  0  0
  4  5  1  0  0  0  0
  4 16  1  0  0  0  0
  4 17  1  0  0  0  0
  5  6  1  6  0  0  0
  5  7  1  0  0  0  0
  5 10  1  0  0  0  0
  7  8  2  0  0  0  0
  7  9  1  0  0  0  0
 10 18  1  0  0  0  0
 10 19  1  0  0  0  0
 10 20  1  0  0  0  0
M  CHG  1  10   1
M  END
$$$$
