ZINC03872994
 OpenBabel08292219463D

 65 69  0  0  1  0  0  0  0  0999 V2000
    2.3952   -0.7566    1.2944 C   0  0  0  0  0  0  0  0  0  0  0  0
    2.3911    0.0040   -0.0066 C   0  0  0  0  0  0  0  0  0  0  0  0
    2.3896    1.2168   -0.0000 O   0  0  0  0  0  0  0  0  0  0  0  0
    2.3891   -0.6636   -1.1775 N   0  0  0  0  0  0  0  0  0  0  0  0
    2.3847   -2.1330   -1.2007 C   0  0  0  0  0  0  0  0  0  0  0  0
    1.1892   -2.6064   -2.0367 C   0  0  0  0  0  0  0  0  0  0  0  0
    1.1909   -1.8779   -3.3131 N   0  0  0  0  0  0  0  0  0  0  0  0
    1.1953   -0.4084   -3.2899 C   0  0  0  0  0  0  0  0  0  0  0  0
    2.3851    0.0650   -2.4538 C   0  0  0  0  0  0  0  0  0  0  0  0
    1.1889   -2.5710   -4.5288 C   0  0  0  0  0  0  0  0  0  0  0  0
    1.0744   -1.8751   -5.7250 C   0  0  0  0  0  0  0  0  0  0  0  0
    1.0730   -2.5599   -6.9243 C   0  0  0  0  0  0  0  0  0  0  0  0
    1.1857   -3.9423   -6.9342 C   0  0  0  0  0  0  0  0  0  0  0  0
    1.2996   -4.6382   -5.7398 C   0  0  0  0  0  0  0  0  0  0  0  0
    1.3070   -3.9545   -4.5398 C   0  0  0  0  0  0  0  0  0  0  0  0
    1.1842   -4.6158   -8.1157 O   0  0  0  0  0  0  0  0  0  0  0  0
    1.3038   -6.0384   -8.0517 C   0  0  0  0  0  0  0  0  0  0  0  0
    1.2832   -6.6162   -9.4682 C   0  0  1  0  0  0  0  0  0  0  0  0
    1.3806   -8.1620   -9.4381 C   0  0  0  0  0  0  0  0  0  0  0  0
    0.7313   -8.5537  -10.6645 O   0  0  0  0  0  0  0  0  0  0  0  0
   -0.1147   -7.4676  -11.0645 C   0  0  1  0  0  0  0  0  0  0  0  0
   -0.0081   -6.4149  -10.0914 O   0  0  0  0  0  0  0  0  0  0  0  0
    0.3281   -6.9484  -12.4339 C   0  0  0  0  0  0  0  0  0  0  0  0
    1.7197   -6.4968  -12.3583 N   0  0  0  0  0  0  0  0  0  0  0  0
    2.1485   -5.2369  -12.0381 C   0  0  0  0  0  0  0  0  0  0  0  0
    3.4942   -5.2595  -12.0858 C   0  0  0  0  0  0  0  0  0  0  0  0
    3.8766   -6.4993  -12.4257 N   0  0  0  0  0  4  0  0  0  0  0  0
    2.8192   -7.2472  -12.5856 C   0  0  0  0  0  0  0  0  0  0  0  0
   -1.5432   -7.9411  -11.1437 C   0  0  0  0  0  0  0  0  0  0  0  0
   -2.2334   -7.8584  -12.3387 C   0  0  0  0  0  0  0  0  0  0  0  0
   -3.5434   -8.2924  -12.4121 C   0  0  0  0  0  0  0  0  0  0  0  0
   -4.1649   -8.8105  -11.2895 C   0  0  0  0  0  0  0  0  0  0  0  0
   -3.4748   -8.8938  -10.0938 C   0  0  0  0  0  0  0  0  0  0  0  0
   -2.1618   -8.4636  -10.0221 C   0  0  0  0  0  0  0  0  0  0  0  0
   -1.2928   -8.5735   -8.5233 Cl  0  0  0  0  0  0  0  0  0  0  0  0
   -5.8107   -9.3551  -11.3818 Cl  0  0  0  0  0  0  0  0  0  0  0  0
    1.3685   -0.9413    1.6105 H   0  0  0  0  0  0  0  0  0  0  0  0
    2.9099   -1.7076    1.1576 H   0  0  0  0  0  0  0  0  0  0  0  0
    2.9101   -0.1710    2.0560 H   0  0  0  0  0  0  0  0  0  0  0  0
    3.3104   -2.4946   -1.6485 H   0  0  0  0  0  0  0  0  0  0  0  0
    2.2940   -2.5147   -0.1837 H   0  0  0  0  0  0  0  0  0  0  0  0
    1.2760   -3.6763   -2.2261 H   0  0  0  0  0  0  0  0  0  0  0  0
    0.2632   -2.4013   -1.4997 H   0  0  0  0  0  0  0  0  0  0  0  0
    1.2861   -0.0267   -4.3068 H   0  0  0  0  0  0  0  0  0  0  0  0
    0.2697   -0.0468   -2.8421 H   0  0  0  0  0  0  0  0  0  0  0  0
    2.2946    1.1346   -2.2643 H   0  0  0  0  0  0  0  0  0  0  0  0
    3.3108   -0.1365   -2.9929 H   0  0  0  0  0  0  0  0  0  0  0  0
    0.9862   -0.7987   -5.7174 H   0  0  0  0  0  0  0  0  0  0  0  0
    0.9836   -2.0189   -7.8548 H   0  0  0  0  0  0  0  0  0  0  0  0
    1.3871   -5.7146   -5.7484 H   0  0  0  0  0  0  0  0  0  0  0  0
    1.4005   -4.4961   -3.6102 H   0  0  0  0  0  0  0  0  0  0  0  0
    2.2428   -6.3025   -7.5652 H   0  0  0  0  0  0  0  0  0  0  0  0
    0.4708   -6.4477   -7.4801 H   0  0  0  0  0  0  0  0  0  0  0  0
    2.0804   -6.1861  -10.0746 H   0  0  0  0  0  0  0  0  0  0  0  0
    2.4224   -8.4823   -9.4345 H   0  0  0  0  0  0  0  0  0  0  0  0
    0.8497   -8.5647   -8.5755 H   0  0  0  0  0  0  0  0  0  0  0  0
    0.2452   -7.7482  -13.1699 H   0  0  0  0  0  0  0  0  0  0  0  0
   -0.3088   -6.1148  -12.7298 H   0  0  0  0  0  0  0  0  0  0  0  0
    1.5271   -4.3879  -11.7945 H   0  0  0  0  0  0  0  0  0  0  0  0
    4.1504   -4.4255  -11.8854 H   0  0  0  0  0  0  0  0  0  0  0  0
    2.8227   -8.2925  -12.8574 H   0  0  0  0  0  0  0  0  0  0  0  0
   -1.7487   -7.4542  -13.2151 H   0  0  0  0  0  0  0  0  0  0  0  0
   -4.0823   -8.2270  -13.3458 H   0  0  0  0  0  0  0  0  0  0  0  0
   -3.9594   -9.2981   -9.2174 H   0  0  0  0  0  0  0  0  0  0  0  0
    4.7945   -6.7945  -12.5323 H   0  0  0  0  0  0  0  0  0  0  0  0
  1  2  1  0  0  0  0
  1 37  1  0  0  0  0
  1 38  1  0  0  0  0
  1 39  1  0  0  0  0
  2  3  2  0  0  0  0
  2  4  1  0  0  0  0
  4  9  1  0  0  0  0
  4  5  1  0  0  0  0
  5  6  1  0  0  0  0
  5 40  1  0  0  0  0
  5 41  1  0  0  0  0
  6  7  1  0  0  0  0
  6 42  1  0  0  0  0
  6 43  1  0  0  0  0
  7  8  1  0  0  0  0
  7 10  1  0  0  0  0
  8  9  1  0  0  0  0
  8 44  1  0  0  0  0
  8 45  1  0  0  0  0
  9 46  1  0  0  0  0
  9 47  1  0  0  0  0
 10 15  2  0  0  0  0
 10 11  1  0  0  0  0
 11 12  2  0  0  0  0
 11 48  1  0  0  0  0
 12 13  1  0  0  0  0
 12 49  1  0  0  0  0
 13 14  2  0  0  0  0
 13 16  1  0  0  0  0
 14 15  1  0  0  0  0
 14 50  1  0  0  0  0
 15 51  1  0  0  0  0
 16 17  1  0  0  0  0
 17 18  1  0  0  0  0
 17 52  1  0  0  0  0
 17 53  1  0  0  0  0
 18 22  1  0  0  0  0
 18 19  1  0  0  0  0
 18 54  1  6  0  0  0
 19 20  1  0  0  0  0
 19 55  1  0  0  0  0
 19 56  1  0  0  0  0
 20 21  1  0  0  0  0
 21 22  1  0  0  0  0
 21 23  1  6  0  0  0
 21 29  1  0  0  0  0
 23 24  1  0  0  0  0
 23 57  1  0  0  0  0
 23 58  1  0  0  0  0
 24 28  1  0  0  0  0
 24 25  1  0  0  0  0
 25 26  2  0  0  0  0
 25 59  1  0  0  0  0
 26 27  1  0  0  0  0
 26 60  1  0  0  0  0
 27 28  2  0  0  0  0
 27 65  1  0  0  0  0
 28 61  1  0  0  0  0
 29 34  2  0  0  0  0
 29 30  1  0  0  0  0
 30 31  2  0  0  0  0
 30 62  1  0  0  0  0
 31 32  1  0  0  0  0
 31 63  1  0  0  0  0
 32 33  2  0  0  0  0
 32 36  1  0  0  0  0
 33 34  1  0  0  0  0
 33 64  1  0  0  0  0
 34 35  1  0  0  0  0
M  END
$$$$
