ZINC00538283
 OpenBabel08292219463D

 56 57  0  0  1  0  0  0  0  0999 V2000
    2.1074   -3.0605    2.2981 C   0  0  0  0  0  0  0  0  0  0  0  0
    2.1110   -2.2022    1.0315 C   0  0  0  0  0  0  0  0  0  0  0  0
    3.4150   -1.4529    0.9361 C   0  0  0  0  0  0  0  0  0  0  0  0
    4.2965   -1.6646    1.7419 O   0  0  0  0  0  0  0  0  0  0  0  0
    3.6019   -0.5476   -0.0447 N   0  0  0  0  0  0  0  0  0  0  0  0
    2.5467   -0.2174   -0.9023 C   0  0  0  0  0  0  0  0  0  0  0  0
    2.0167   -1.1770   -1.7549 C   0  0  0  0  0  0  0  0  0  0  0  0
    0.9749   -0.8481   -2.5999 C   0  0  0  0  0  0  0  0  0  0  0  0
    0.4599    0.4353   -2.5979 C   0  0  0  0  0  0  0  0  0  0  0  0
    0.9855    1.3931   -1.7502 C   0  0  0  0  0  0  0  0  0  0  0  0
    2.0270    1.0704   -0.9024 C   0  0  0  0  0  0  0  0  0  0  0  0
    4.9097    0.0908   -0.2129 C   0  0  2  0  0  0  0  0  0  0  0  0
    4.9230    0.8946   -1.5161 C   0  0  0  0  0  0  0  0  0  0  0  0
    4.7149   -0.0577   -2.6976 C   0  0  0  0  0  0  0  0  0  0  0  0
    5.7598   -1.8797   -1.4889 C   0  0  0  0  0  0  0  0  0  0  0  0
    5.9995   -0.9831   -0.2721 C   0  0  0  0  0  0  0  0  0  0  0  0
    5.6943   -1.9109   -3.9087 C   0  0  0  0  0  0  0  0  0  0  0  0
    5.4707   -1.0299   -5.1394 C   0  0  0  0  0  0  0  0  0  0  0  0
    5.3798   -1.8973   -6.3683 C   0  0  0  0  0  0  0  0  0  0  0  0
    5.4832   -3.0971   -6.2700 O   0  0  0  0  0  0  0  0  0  0  0  0
    5.1839   -1.3370   -7.5723 O   0  0  0  0  0  0  0  0  0  0  0  0
    5.1065   -2.2336   -8.7118 C   0  0  0  0  0  0  0  0  0  0  0  0
    5.1734    1.0124    0.9499 C   0  0  0  0  0  0  0  0  0  0  0  0
    6.2934    1.1258    1.3890 O   0  0  0  0  0  0  0  0  0  0  0  0
    4.1642    1.7073    1.4980 O   0  0  0  0  0  0  0  0  0  0  0  0
    4.4917    2.5754    2.6148 C   0  0  0  0  0  0  0  0  0  0  0  0
    2.9328   -3.7713    2.2576 H   0  0  0  0  0  0  0  0  0  0  0  0
    2.2228   -2.4192    3.1719 H   0  0  0  0  0  0  0  0  0  0  0  0
    1.1642   -3.6024    2.3671 H   0  0  0  0  0  0  0  0  0  0  0  0
    1.2857   -1.4913    1.0720 H   0  0  0  0  0  0  0  0  0  0  0  0
    1.9956   -2.8435    0.1577 H   0  0  0  0  0  0  0  0  0  0  0  0
    2.4189   -2.1793   -1.7574 H   0  0  0  0  0  0  0  0  0  0  0  0
    0.5623   -1.5938   -3.2632 H   0  0  0  0  0  0  0  0  0  0  0  0
   -0.3515    0.6913   -3.2630 H   0  0  0  0  0  0  0  0  0  0  0  0
    0.5814    2.3946   -1.7513 H   0  0  0  0  0  0  0  0  0  0  0  0
    2.4368    1.8188   -0.2403 H   0  0  0  0  0  0  0  0  0  0  0  0
    4.1214    1.6330   -1.4964 H   0  0  0  0  0  0  0  0  0  0  0  0
    5.8825    1.4009   -1.6216 H   0  0  0  0  0  0  0  0  0  0  0  0
    4.7385    0.5086   -3.6286 H   0  0  0  0  0  0  0  0  0  0  0  0
    3.7492   -0.5533   -2.5984 H   0  0  0  0  0  0  0  0  0  0  0  0
    6.5422   -2.6367   -1.5421 H   0  0  0  0  0  0  0  0  0  0  0  0
    4.7891   -2.3667   -1.3956 H   0  0  0  0  0  0  0  0  0  0  0  0
    6.9759   -0.5063   -0.3581 H   0  0  0  0  0  0  0  0  0  0  0  0
    5.9667   -1.5854    0.6358 H   0  0  0  0  0  0  0  0  0  0  0  0
    6.6214   -2.4718   -4.0270 H   0  0  0  0  0  0  0  0  0  0  0  0
    4.8607   -2.6052   -3.8025 H   0  0  0  0  0  0  0  0  0  0  0  0
    4.5436   -0.4690   -5.0211 H   0  0  0  0  0  0  0  0  0  0  0  0
    6.3043   -0.3357   -5.2455 H   0  0  0  0  0  0  0  0  0  0  0  0
    6.0377   -2.7936   -8.7974 H   0  0  0  0  0  0  0  0  0  0  0  0
    4.2770   -2.9269   -8.5730 H   0  0  0  0  0  0  0  0  0  0  0  0
    4.9467   -1.6532   -9.6205 H   0  0  0  0  0  0  0  0  0  0  0  0
    5.2201    3.3203    2.2946 H   0  0  0  0  0  0  0  0  0  0  0  0
    3.5883    3.0767    2.9624 H   0  0  0  0  0  0  0  0  0  0  0  0
    4.9123    1.9810    3.4259 H   0  0  0  0  0  0  0  0  0  0  0  0
    5.8094   -1.0513   -2.7125 N   0  3  1  0  0  0  0  0  0  0  0  0
    6.7083   -0.5560   -2.7432 H   0  0  0  0  0  0  0  0  0  0  0  0
  1  2  1  0  0  0  0
  1 27  1  0  0  0  0
  1 28  1  0  0  0  0
  1 29  1  0  0  0  0
  2  3  1  0  0  0  0
  2 30  1  0  0  0  0
  2 31  1  0  0  0  0
  3  4  2  0  0  0  0
  3  5  1  0  0  0  0
  5  6  1  0  0  0  0
  5 12  1  0  0  0  0
  6 11  2  0  0  0  0
  6  7  1  0  0  0  0
  7  8  2  0  0  0  0
  7 32  1  0  0  0  0
  8  9  1  0  0  0  0
  8 33  1  0  0  0  0
  9 10  2  0  0  0  0
  9 34  1  0  0  0  0
 10 11  1  0  0  0  0
 10 35  1  0  0  0  0
 11 36  1  0  0  0  0
 12 16  1  0  0  0  0
 12 13  1  0  0  0  0
 12 23  1  1  0  0  0
 13 14  1  0  0  0  0
 13 37  1  0  0  0  0
 13 38  1  0  0  0  0
 14 39  1  0  0  0  0
 14 40  1  0  0  0  0
 14 55  1  0  0  0  0
 15 16  1  0  0  0  0
 15 41  1  0  0  0  0
 15 42  1  0  0  0  0
 15 55  1  0  0  0  0
 16 43  1  0  0  0  0
 16 44  1  0  0  0  0
 17 18  1  0  0  0  0
 17 45  1  0  0  0  0
 17 46  1  0  0  0  0
 17 55  1  0  0  0  0
 18 19  1  0  0  0  0
 18 47  1  0  0  0  0
 18 48  1  0  0  0  0
 19 20  2  0  0  0  0
 19 21  1  0  0  0  0
 21 22  1  0  0  0  0
 22 49  1  0  0  0  0
 22 50  1  0  0  0  0
 22 51  1  0  0  0  0
 23 24  2  0  0  0  0
 23 25  1  0  0  0  0
 25 26  1  0  0  0  0
 26 52  1  0  0  0  0
 26 53  1  0  0  0  0
 26 54  1  0  0  0  0
 55 56  1  6  0  0  0
M  CHG  1  55   1
M  END
$$$$
