ZINC12503149
 OpenBabel08292219463D

 45 49  0  0  1  0  0  0  0  0999 V2000
   -0.0167    1.3804    0.0096 C   0  0  0  0  0  0  0  0  0  0  0  0
    1.1691    2.0893    0.0021 C   0  0  0  0  0  0  0  0  0  0  0  0
    2.3811    1.4132   -0.0130 C   0  0  0  0  0  0  0  0  0  0  0  0
    2.3989    0.0223   -0.0206 C   0  0  0  0  0  0  0  0  0  0  0  0
    1.2094   -0.6825   -0.0131 C   0  0  0  0  0  0  0  0  0  0  0  0
    0.0021   -0.0041    0.0020 C   0  0  0  0  0  0  0  0  0  0  0  0
   -1.1593   -0.6943    0.0094 F   0  0  0  0  0  0  0  0  0  0  0  0
    3.5769   -0.6390   -0.0358 F   0  0  0  0  0  0  0  0  0  0  0  0
    3.5847    2.1306   -0.0211 N   0  0  0  0  0  0  0  0  0  0  0  0
    4.1210    2.4692   -1.2020 C   0  0  0  0  0  0  0  0  0  0  0  0
    5.3045    3.1755   -1.2976 C   0  0  0  0  0  0  0  0  0  0  0  0
    5.9978    3.5686   -0.0581 C   0  0  0  0  0  0  0  0  0  0  0  0
    7.0444    4.1927   -0.0860 O   0  0  0  0  0  0  0  0  0  0  0  0
    5.3728    3.1761    1.2144 C   0  0  0  0  0  0  0  0  0  0  0  0
    4.1623    2.4617    1.1852 C   0  0  0  0  0  0  0  0  0  0  0  0
    3.5837    2.1041    2.3250 N   0  0  0  0  0  0  0  0  0  0  0  0
    4.1160    2.4081    3.4970 C   0  0  0  0  0  0  0  0  0  0  0  0
    5.3147    3.1219    3.5899 C   0  0  0  0  0  0  0  0  0  0  0  0
    5.9586    3.5048    2.4429 C   0  0  0  0  0  0  0  0  0  0  0  0
    5.8384    3.4215    4.7987 F   0  0  0  0  0  0  0  0  0  0  0  0
    3.4717    2.0110    4.6577 N   0  0  0  0  0  0  0  0  0  0  0  0
    3.8909    2.2527    6.0579 C   0  0  0  0  0  0  0  0  0  0  0  0
    2.5791    2.5681    6.8084 C   0  0  2  0  0  0  0  0  0  0  0  0
    2.5911    2.5025    7.8964 H   0  0  0  0  0  0  0  0  0  0  0  0
    1.4691    1.9061    5.9658 C   0  0  2  0  0  0  0  0  0  0  0  0
    0.6463    1.3595    6.4268 H   0  0  0  0  0  0  0  0  0  0  0  0
    2.2040    1.2542    4.7800 C   0  0  0  0  0  0  0  0  0  0  0  0
    1.5517    3.4676    6.1182 C   0  0  2  0  0  0  0  0  0  0  0  0
    2.0094    4.2601    4.9691 N   0  3  0  0  0  0  0  0  0  0  0  0
    5.8608    3.5270   -2.6083 C   0  0  0  0  0  0  0  0  0  0  0  0
    5.2756    3.1944   -3.6308 O   0  0  0  0  0  0  0  0  0  0  0  0
    6.9102    4.1531   -2.6799 O   0  0  0  0  0  1  0  0  0  0  0  0
   -0.9596    1.9069    0.0260 H   0  0  0  0  0  0  0  0  0  0  0  0
    1.1529    3.1691    0.0077 H   0  0  0  0  0  0  0  0  0  0  0  0
    1.2218   -1.7624   -0.0193 H   0  0  0  0  0  0  0  0  0  0  0  0
    3.6110    2.1799   -2.1090 H   0  0  0  0  0  0  0  0  0  0  0  0
    6.8863    4.0561    2.4852 H   0  0  0  0  0  0  0  0  0  0  0  0
    4.3613    1.3613    6.4730 H   0  0  0  0  0  0  0  0  0  0  0  0
    4.5720    3.1021    6.1095 H   0  0  0  0  0  0  0  0  0  0  0  0
    1.6140    1.3512    3.8687 H   0  0  0  0  0  0  0  0  0  0  0  0
    2.4070    0.2046    4.9924 H   0  0  0  0  0  0  0  0  0  0  0  0
    0.7984    3.9434    6.7461 H   0  0  0  0  0  0  0  0  0  0  0  0
    2.3500    3.6417    4.2483 H   0  0  0  0  0  0  0  0  0  0  0  0
    1.2405    4.8053    4.6090 H   0  0  0  0  0  0  0  0  0  0  0  0
    2.7520    4.8778    5.2609 H   0  0  0  0  0  0  0  0  0  0  0  0
  1  6  2  0  0  0  0
  1  2  1  0  0  0  0
  1 33  1  0  0  0  0
  2  3  2  0  0  0  0
  2 34  1  0  0  0  0
  3  4  1  0  0  0  0
  3  9  1  0  0  0  0
  4  5  2  0  0  0  0
  4  8  1  0  0  0  0
  5  6  1  0  0  0  0
  5 35  1  0  0  0  0
  6  7  1  0  0  0  0
  9 15  1  0  0  0  0
  9 10  1  0  0  0  0
 10 11  2  0  0  0  0
 10 36  1  0  0  0  0
 11 12  1  0  0  0  0
 11 30  1  0  0  0  0
 12 13  2  0  0  0  0
 12 14  1  0  0  0  0
 14 19  2  0  0  0  0
 14 15  1  0  0  0  0
 15 16  2  0  0  0  0
 16 17  1  0  0  0  0
 17 18  2  0  0  0  0
 17 21  1  0  0  0  0
 18 19  1  0  0  0  0
 18 20  1  0  0  0  0
 19 37  1  0  0  0  0
 21 27  1  0  0  0  0
 21 22  1  0  0  0  0
 22 23  1  0  0  0  0
 22 38  1  0  0  0  0
 22 39  1  0  0  0  0
 23 24  1  1  0  0  0
 23 28  1  0  0  0  0
 23 25  1  0  0  0  0
 25 26  1  1  0  0  0
 25 27  1  0  0  0  0
 25 28  1  0  0  0  0
 27 40  1  0  0  0  0
 27 41  1  0  0  0  0
 28 29  1  0  0  0  0
 28 42  1  1  0  0  0
 29 43  1  0  0  0  0
 29 44  1  0  0  0  0
 29 45  1  0  0  0  0
 30 31  2  0  0  0  0
 30 32  1  0  0  0  0
M  CHG  1  29   1
M  END
$$$$
