ZINC03977985
 OpenBabel08292219463D

 71 74  0  0  1  0  0  0  0  0999 V2000
    1.7167    1.2309    1.5187 C   0  0  0  0  0  0  0  0  0  0  0  0
    1.3454   -0.1868    1.0794 C   0  0  2  0  0  0  0  0  0  0  0  0
    2.1316   -0.6004    0.4477 H   0  0  0  0  0  0  0  0  0  0  0  0
   -0.0035   -0.1703    0.3097 C   0  0  0  0  0  0  0  0  0  0  0  0
   -1.0253   -0.5076    1.4012 C   0  0  1  0  0  0  0  0  0  0  0  0
   -1.1939    0.3572    2.0429 H   0  0  0  0  0  0  0  0  0  0  0  0
   -2.3489   -1.0698    0.9157 C   0  0  2  0  0  0  0  0  0  0  0  0
   -2.1727   -1.9725    0.3308 H   0  0  0  0  0  0  0  0  0  0  0  0
   -3.0706   -0.0302    0.0559 C   0  0  0  0  0  0  0  0  0  0  0  0
   -4.3873   -0.6154   -0.4645 C   0  0  1  0  0  0  0  0  0  0  0  0
   -4.1799   -1.4524   -1.1313 H   0  0  0  0  0  0  0  0  0  0  0  0
   -5.1933   -1.0974    0.7271 C   0  0  0  0  0  0  0  0  0  0  0  0
   -6.4507   -0.6977    0.8564 C   0  0  0  0  0  0  0  0  0  0  0  0
   -7.2574   -1.1277    2.0090 C   0  0  0  0  0  0  0  0  0  0  0  0
   -8.4233   -0.7949    2.1114 O   0  0  0  0  0  0  0  0  0  0  0  0
   -6.6219   -1.9706    3.0360 C   0  0  0  0  0  0  0  0  0  0  0  0
   -5.3670   -2.3631    2.8829 C   0  0  0  0  0  0  0  0  0  0  0  0
   -4.5212   -2.0131    1.7070 C   0  0  2  0  0  0  0  0  0  0  0  0
   -3.1875   -1.4118    2.1576 C   0  0  1  0  0  0  0  0  0  0  0  0
   -2.4590   -2.3847    3.0797 C   0  0  2  0  0  0  0  0  0  0  0  0
   -3.0477   -2.5237    3.9864 H   0  0  0  0  0  0  0  0  0  0  0  0
   -1.0633   -1.8673    3.4626 C   0  0  0  0  0  0  0  0  0  0  0  0
   -0.2906   -1.6287    2.1842 C   0  0  2  0  0  0  0  0  0  0  0  0
    1.1308   -1.0889    2.3202 C   0  0  1  0  0  0  0  0  0  0  0  0
    2.1234   -2.2228    2.3194 C   0  0  0  0  0  0  0  0  0  0  0  0
    2.5416   -2.6584    1.2736 O   0  0  0  0  0  0  0  0  0  0  0  0
    2.5942   -2.8131    3.6236 C   0  0  0  0  0  0  0  0  0  0  0  0
    3.5247   -3.8656    3.3618 O   0  0  0  0  0  0  0  0  0  0  0  0
    4.0424   -4.4999    4.4255 C   0  0  0  0  0  0  0  0  0  0  0  0
    3.7163   -4.1723    5.5418 O   0  0  0  0  0  0  0  0  0  0  0  0
    5.0303   -5.6205    4.2272 C   0  0  0  0  0  0  0  0  0  0  0  0
    5.4611   -6.1675    5.5896 C   0  0  0  0  0  0  0  0  0  0  0  0
    4.3767   -6.7383    3.4123 C   0  0  0  0  0  0  0  0  0  0  0  0
    6.2561   -5.0933    3.4785 C   0  0  0  0  0  0  0  0  0  0  0  0
    1.2564   -0.3206    3.5186 O   0  0  0  0  0  0  0  0  0  0  0  0
   -0.2826   -2.9176    1.3599 C   0  0  0  0  0  0  0  0  0  0  0  0
   -2.3223   -3.6426    2.4156 O   0  0  0  0  0  0  0  0  0  0  0  0
   -3.4514   -0.2383    2.8722 F   0  0  0  0  0  0  0  0  0  0  0  0
   -4.1781   -3.3115    0.9740 C   0  0  0  0  0  0  0  0  0  0  0  0
   -5.1030    0.3703   -1.1525 F   0  0  0  0  0  0  0  0  0  0  0  0
    2.6440    1.2029    2.0910 H   0  0  0  0  0  0  0  0  0  0  0  0
    1.8515    1.8603    0.6390 H   0  0  0  0  0  0  0  0  0  0  0  0
    0.9191    1.6397    2.1391 H   0  0  0  0  0  0  0  0  0  0  0  0
   -0.1972    0.8177   -0.1080 H   0  0  0  0  0  0  0  0  0  0  0  0
   -0.0104   -0.9291   -0.4728 H   0  0  0  0  0  0  0  0  0  0  0  0
   -3.2795    0.8552    0.6564 H   0  0  0  0  0  0  0  0  0  0  0  0
   -2.4377    0.2454   -0.7876 H   0  0  0  0  0  0  0  0  0  0  0  0
   -6.8864   -0.0507    0.1094 H   0  0  0  0  0  0  0  0  0  0  0  0
   -7.1785   -2.2675    3.9126 H   0  0  0  0  0  0  0  0  0  0  0  0
   -4.9291   -2.9744    3.6581 H   0  0  0  0  0  0  0  0  0  0  0  0
   -1.1524   -0.9285    4.0092 H   0  0  0  0  0  0  0  0  0  0  0  0
   -0.5482   -2.6072    4.0751 H   0  0  0  0  0  0  0  0  0  0  0  0
    3.0790   -2.0392    4.2187 H   0  0  0  0  0  0  0  0  0  0  0  0
    1.7401   -3.2112    4.1715 H   0  0  0  0  0  0  0  0  0  0  0  0
    4.5879   -6.5431    6.1230 H   0  0  0  0  0  0  0  0  0  0  0  0
    6.1757   -6.9780    5.4462 H   0  0  0  0  0  0  0  0  0  0  0  0
    5.9267   -5.3711    6.1702 H   0  0  0  0  0  0  0  0  0  0  0  0
    4.0698   -6.3486    2.4417 H   0  0  0  0  0  0  0  0  0  0  0  0
    5.0913   -7.5489    3.2689 H   0  0  0  0  0  0  0  0  0  0  0  0
    3.5035   -7.1139    3.9457 H   0  0  0  0  0  0  0  0  0  0  0  0
    6.7217   -4.2969    4.0591 H   0  0  0  0  0  0  0  0  0  0  0  0
    6.9706   -5.9038    3.3352 H   0  0  0  0  0  0  0  0  0  0  0  0
    5.9491   -4.7036    2.5080 H   0  0  0  0  0  0  0  0  0  0  0  0
    2.1272    0.0825    3.6379 H   0  0  0  0  0  0  0  0  0  0  0  0
    0.3951   -2.8035    0.5138 H   0  0  0  0  0  0  0  0  0  0  0  0
    0.0519   -3.7461    1.9842 H   0  0  0  0  0  0  0  0  0  0  0  0
   -1.2891   -3.1214    0.9944 H   0  0  0  0  0  0  0  0  0  0  0  0
   -1.8675   -4.3164    2.9393 H   0  0  0  0  0  0  0  0  0  0  0  0
   -3.2905   -3.1585    0.3600 H   0  0  0  0  0  0  0  0  0  0  0  0
   -3.9848   -4.0995    1.7019 H   0  0  0  0  0  0  0  0  0  0  0  0
   -5.0143   -3.6016    0.3379 H   0  0  0  0  0  0  0  0  0  0  0  0
  1  2  1  0  0  0  0
  1 41  1  0  0  0  0
  1 42  1  0  0  0  0
  1 43  1  0  0  0  0
  2  3  1  6  0  0  0
  2 24  1  0  0  0  0
  2  4  1  0  0  0  0
  4  5  1  0  0  0  0
  4 44  1  0  0  0  0
  4 45  1  0  0  0  0
  5  6  1  1  0  0  0
  5 23  1  0  0  0  0
  5  7  1  0  0  0  0
  7  8  1  6  0  0  0
  7 19  1  0  0  0  0
  7  9  1  0  0  0  0
  9 10  1  0  0  0  0
  9 46  1  0  0  0  0
  9 47  1  0  0  0  0
 10 11  1  6  0  0  0
 10 12  1  0  0  0  0
 10 40  1  0  0  0  0
 12 18  1  0  0  0  0
 12 13  2  0  0  0  0
 13 14  1  0  0  0  0
 13 48  1  0  0  0  0
 14 15  2  0  0  0  0
 14 16  1  0  0  0  0
 16 17  2  0  0  0  0
 16 49  1  0  0  0  0
 17 18  1  0  0  0  0
 17 50  1  0  0  0  0
 18 19  1  0  0  0  0
 18 39  1  6  0  0  0
 19 20  1  0  0  0  0
 19 38  1  1  0  0  0
 20 21  1  1  0  0  0
 20 22  1  0  0  0  0
 20 37  1  0  0  0  0
 22 23  1  0  0  0  0
 22 51  1  0  0  0  0
 22 52  1  0  0  0  0
 23 24  1  0  0  0  0
 23 36  1  6  0  0  0
 24 25  1  6  0  0  0
 24 35  1  0  0  0  0
 25 26  2  0  0  0  0
 25 27  1  0  0  0  0
 27 28  1  0  0  0  0
 27 53  1  0  0  0  0
 27 54  1  0  0  0  0
 28 29  1  0  0  0  0
 29 30  2  0  0  0  0
 29 31  1  0  0  0  0
 31 32  1  0  0  0  0
 31 33  1  0  0  0  0
 31 34  1  0  0  0  0
 32 55  1  0  0  0  0
 32 56  1  0  0  0  0
 32 57  1  0  0  0  0
 33 58  1  0  0  0  0
 33 59  1  0  0  0  0
 33 60  1  0  0  0  0
 34 61  1  0  0  0  0
 34 62  1  0  0  0  0
 34 63  1  0  0  0  0
 35 64  1  0  0  0  0
 36 65  1  0  0  0  0
 36 66  1  0  0  0  0
 36 67  1  0  0  0  0
 37 68  1  0  0  0  0
 39 69  1  0  0  0  0
 39 70  1  0  0  0  0
 39 71  1  0  0  0  0
M  END
$$$$
