ZINC03820029
 OpenBabel08292219463D

 64 68  0  0  1  0  0  0  0  0999 V2000
   -0.0127    1.0858    0.0080 C   0  0  0  0  0  0  0  0  0  0  0  0
   -0.7017    1.5605    1.2191 C   0  0  0  0  0  0  0  0  0  0  0  0
   -1.2512    1.9391    2.1850 C   0  0  0  0  0  0  0  0  0  0  0  0
   -1.9402    2.4139    3.3961 C   0  0  0  0  0  0  0  0  0  0  0  0
   -1.9601    3.8787    3.4041 N   0  0  0  0  0  0  0  0  0  0  0  0
   -2.9417    4.6969    2.8612 C   0  0  0  0  0  0  0  0  0  0  0  0
   -2.5399    6.0057    3.1060 C   0  0  0  0  0  0  0  0  0  0  0  0
   -1.3789    5.9543    3.7608 N   0  0  0  0  0  0  0  0  0  0  0  0
   -1.0240    4.6995    3.9498 C   0  0  0  0  0  0  0  0  0  0  0  0
    0.1178    4.2847    4.5959 N   0  0  0  0  0  0  0  0  0  0  0  0
    0.9191    3.4048    3.7356 C   0  0  0  0  0  0  0  0  0  0  0  0
    2.1011    2.8484    4.5327 C   0  0  0  0  0  0  0  0  0  0  0  0
    2.9571    4.0100    5.0448 C   0  0  0  0  0  0  0  0  0  0  0  0
    2.0873    4.9373    5.8982 C   0  0  2  0  0  0  0  0  0  0  0  0
    1.7155    4.3920    6.7657 H   0  0  0  0  0  0  0  0  0  0  0  0
    0.9057    5.4331    5.0615 C   0  0  0  0  0  0  0  0  0  0  0  0
   -3.3446    7.0444    2.6659 N   0  0  0  0  0  0  0  0  0  0  0  0
   -4.4924    6.7787    2.0142 C   0  0  0  0  0  0  0  0  0  0  0  0
   -5.1866    7.7022    1.6350 O   0  0  0  0  0  0  0  0  0  0  0  0
   -4.8900    5.5175    1.7729 N   0  0  0  0  0  0  0  0  0  0  0  0
   -4.1478    4.4657    2.1765 C   0  0  0  0  0  0  0  0  0  0  0  0
   -4.5195    3.3271    1.9512 O   0  0  0  0  0  0  0  0  0  0  0  0
   -6.1480    5.2816    1.0600 C   0  0  0  0  0  0  0  0  0  0  0  0
   -5.8811    5.2174   -0.4218 C   0  0  0  0  0  0  0  0  0  0  0  0
   -5.9440    6.3380   -1.1262 N   0  0  0  0  0  0  0  0  0  0  0  0
   -5.7160    6.3521   -2.4241 C   0  0  0  0  0  0  0  0  0  0  0  0
   -5.4111    5.1360   -3.0616 C   0  0  0  0  0  0  0  0  0  0  0  0
   -5.1609    5.0581   -4.4396 C   0  0  0  0  0  0  0  0  0  0  0  0
   -4.8711    3.8513   -5.0011 C   0  0  0  0  0  0  0  0  0  0  0  0
   -4.8197    2.6940   -4.2265 C   0  0  0  0  0  0  0  0  0  0  0  0
   -5.0578    2.7337   -2.8859 C   0  0  0  0  0  0  0  0  0  0  0  0
   -5.3594    3.9583   -2.2721 C   0  0  0  0  0  0  0  0  0  0  0  0
   -5.6020    4.0541   -0.9589 N   0  0  0  0  0  0  0  0  0  0  0  0
   -5.7858    7.6381   -3.2067 C   0  0  0  0  0  0  0  0  0  0  0  0
   -2.9459    8.4328    2.9096 C   0  0  0  0  0  0  0  0  0  0  0  0
    0.0021   -0.0041    0.0020 H   0  0  0  0  0  0  0  0  0  0  0  0
    1.0099    1.4631    0.0003 H   0  0  0  0  0  0  0  0  0  0  0  0
   -0.5399    1.4469   -0.8751 H   0  0  0  0  0  0  0  0  0  0  0  0
   -2.9628    2.0366    3.4038 H   0  0  0  0  0  0  0  0  0  0  0  0
   -1.4130    2.0528    4.2791 H   0  0  0  0  0  0  0  0  0  0  0  0
    0.2997    2.5808    3.3816 H   0  0  0  0  0  0  0  0  0  0  0  0
    1.2912    3.9719    2.8823 H   0  0  0  0  0  0  0  0  0  0  0  0
    2.7044    2.2077    3.8895 H   0  0  0  0  0  0  0  0  0  0  0  0
    1.7301    2.2693    5.3783 H   0  0  0  0  0  0  0  0  0  0  0  0
    3.3607    4.5659    4.1985 H   0  0  0  0  0  0  0  0  0  0  0  0
    3.7766    3.6211    5.6492 H   0  0  0  0  0  0  0  0  0  0  0  0
    1.2779    5.9907    4.2020 H   0  0  0  0  0  0  0  0  0  0  0  0
    0.2765    6.0823    5.6705 H   0  0  0  0  0  0  0  0  0  0  0  0
    3.6738    5.7832    6.9010 H   0  0  0  0  0  0  0  0  0  0  0  0
    3.1904    6.6426    5.5618 H   0  0  0  0  0  0  0  0  0  0  0  0
   -6.5825    4.3388    1.3921 H   0  0  0  0  0  0  0  0  0  0  0  0
   -6.8423    6.0954    1.2692 H   0  0  0  0  0  0  0  0  0  0  0  0
   -5.1974    5.9479   -5.0505 H   0  0  0  0  0  0  0  0  0  0  0  0
   -4.6787    3.7904   -6.0621 H   0  0  0  0  0  0  0  0  0  0  0  0
   -4.5877    1.7500   -4.6969 H   0  0  0  0  0  0  0  0  0  0  0  0
   -5.0142    1.8280   -2.2992 H   0  0  0  0  0  0  0  0  0  0  0  0
   -6.8028    7.7883   -3.5689 H   0  0  0  0  0  0  0  0  0  0  0  0
   -5.5026    8.4709   -2.5630 H   0  0  0  0  0  0  0  0  0  0  0  0
   -5.1024    7.5852   -4.0542 H   0  0  0  0  0  0  0  0  0  0  0  0
   -2.3420    8.7892    2.0750 H   0  0  0  0  0  0  0  0  0  0  0  0
   -3.8358    9.0549    3.0059 H   0  0  0  0  0  0  0  0  0  0  0  0
   -2.3631    8.4875    3.8291 H   0  0  0  0  0  0  0  0  0  0  0  0
    2.8697    6.0973    6.3602 N   0  3  0  0  0  0  0  0  0  0  0  0
    2.2771    6.6893    6.9539 H   0  0  0  0  0  0  0  0  0  0  0  0
  1  2  1  0  0  0  0
  1 36  1  0  0  0  0
  1 37  1  0  0  0  0
  1 38  1  0  0  0  0
  2  3  3  0  0  0  0
  3  4  1  0  0  0  0
  4  5  1  0  0  0  0
  4 39  1  0  0  0  0
  4 40  1  0  0  0  0
  5  9  1  0  0  0  0
  5  6  1  0  0  0  0
  6 21  1  0  0  0  0
  6  7  2  0  0  0  0
  7  8  1  0  0  0  0
  7 17  1  0  0  0  0
  8  9  2  0  0  0  0
  9 10  1  0  0  0  0
 10 16  1  0  0  0  0
 10 11  1  0  0  0  0
 11 12  1  0  0  0  0
 11 41  1  0  0  0  0
 11 42  1  0  0  0  0
 12 13  1  0  0  0  0
 12 43  1  0  0  0  0
 12 44  1  0  0  0  0
 13 14  1  0  0  0  0
 13 45  1  0  0  0  0
 13 46  1  0  0  0  0
 14 15  1  1  0  0  0
 14 16  1  0  0  0  0
 14 63  1  0  0  0  0
 16 47  1  0  0  0  0
 16 48  1  0  0  0  0
 17 18  1  0  0  0  0
 17 35  1  0  0  0  0
 18 19  2  0  0  0  0
 18 20  1  0  0  0  0
 20 21  1  0  0  0  0
 20 23  1  0  0  0  0
 21 22  2  0  0  0  0
 23 24  1  0  0  0  0
 23 51  1  0  0  0  0
 23 52  1  0  0  0  0
 24 33  2  0  0  0  0
 24 25  1  0  0  0  0
 25 26  2  0  0  0  0
 26 27  1  0  0  0  0
 26 34  1  0  0  0  0
 27 32  2  0  0  0  0
 27 28  1  0  0  0  0
 28 29  2  0  0  0  0
 28 53  1  0  0  0  0
 29 30  1  0  0  0  0
 29 54  1  0  0  0  0
 30 31  2  0  0  0  0
 30 55  1  0  0  0  0
 31 32  1  0  0  0  0
 31 56  1  0  0  0  0
 32 33  1  0  0  0  0
 34 57  1  0  0  0  0
 34 58  1  0  0  0  0
 34 59  1  0  0  0  0
 35 60  1  0  0  0  0
 35 61  1  0  0  0  0
 35 62  1  0  0  0  0
 49 63  1  0  0  0  0
 50 63  1  0  0  0  0
 63 64  1  0  0  0  0
M  CHG  1  63   1
M  END
$$$$
