ZINC00119839
 OpenBabel08292219463D

 27 29  0  0  1  0  0  0  0  0999 V2000
   -0.0167    1.3781    0.0096 C   0  0  0  0  0  0  0  0  0  0  0  0
    1.1709    2.0855    0.0021 C   0  0  0  0  0  0  0  0  0  0  0  0
    2.3773    1.4107   -0.0130 C   0  0  0  0  0  0  0  0  0  0  0  0
    2.3960    0.0285   -0.0201 C   0  0  0  0  0  0  0  0  0  0  0  0
    1.2084   -0.6789   -0.0117 C   0  0  0  0  0  0  0  0  0  0  0  0
    0.0021   -0.0041    0.0020 C   0  0  0  0  0  0  0  0  0  0  0  0
    3.7112   -0.7071   -0.0376 C   0  0  1  0  0  0  0  0  0  0  0  0
    4.5062   -0.0575   -0.4037 H   0  0  0  0  0  0  0  0  0  0  0  0
    4.0509   -1.2360    1.3645 C   0  0  0  0  0  0  0  0  0  0  0  0
    4.1320   -2.7122    1.1810 N   0  0  0  0  0  0  0  0  0  0  0  0
    4.4515   -3.8543    2.0491 C   0  0  0  0  0  0  0  0  0  0  0  0
    3.9121   -5.1856    1.4792 C   0  0  0  0  0  0  0  0  0  0  0  0
    3.8937   -4.7494   -0.3091 S   0  0  0  0  0  0  0  0  0  0  0  0
    3.8407   -2.9703   -0.1369 C   0  0  0  0  0  0  0  0  0  0  0  0
    3.6134   -1.9142   -0.8628 N   0  0  0  0  0  4  0  0  0  0  0  0
   -0.9591    1.9053    0.0259 H   0  0  0  0  0  0  0  0  0  0  0  0
    1.1563    3.1654    0.0076 H   0  0  0  0  0  0  0  0  0  0  0  0
    3.3051    1.9634   -0.0196 H   0  0  0  0  0  0  0  0  0  0  0  0
    1.2231   -1.7588   -0.0176 H   0  0  0  0  0  0  0  0  0  0  0  0
   -0.9258   -0.5567    0.0082 H   0  0  0  0  0  0  0  0  0  0  0  0
    5.0087   -0.8394    1.7011 H   0  0  0  0  0  0  0  0  0  0  0  0
    3.2609   -0.9814    2.0710 H   0  0  0  0  0  0  0  0  0  0  0  0
    5.5339   -3.9269    2.1550 H   0  0  0  0  0  0  0  0  0  0  0  0
    4.0122   -3.6859    3.0323 H   0  0  0  0  0  0  0  0  0  0  0  0
    4.5938   -6.0116    1.6815 H   0  0  0  0  0  0  0  0  0  0  0  0
    2.9091   -5.4002    1.8479 H   0  0  0  0  0  0  0  0  0  0  0  0
    3.4082   -1.9231   -1.8108 H   0  0  0  0  0  0  0  0  0  0  0  0
  1  6  2  0  0  0  0
  1  2  1  0  0  0  0
  1 16  1  0  0  0  0
  2  3  2  0  0  0  0
  2 17  1  0  0  0  0
  3  4  1  0  0  0  0
  3 18  1  0  0  0  0
  4  5  2  0  0  0  0
  4  7  1  0  0  0  0
  5  6  1  0  0  0  0
  5 19  1  0  0  0  0
  6 20  1  0  0  0  0
  7  8  1  6  0  0  0
  7 15  1  0  0  0  0
  7  9  1  0  0  0  0
  9 10  1  0  0  0  0
  9 21  1  0  0  0  0
  9 22  1  0  0  0  0
 10 14  1  0  0  0  0
 10 11  1  0  0  0  0
 11 12  1  0  0  0  0
 11 23  1  0  0  0  0
 11 24  1  0  0  0  0
 12 13  1  0  0  0  0
 12 25  1  0  0  0  0
 12 26  1  0  0  0  0
 13 14  1  0  0  0  0
 14 15  2  0  0  0  0
 15 27  1  0  0  0  0
M  END
$$$$
