ZINC01530906
 OpenBabel08292219463D

 38 39  0  0  1  0  0  0  0  0999 V2000
   -0.2068    1.5525   -0.0414 C   0  0  0  0  0  0  0  0  0  0  0  0
   -0.0688    0.0941   -0.0598 N   0  0  0  0  0  0  0  0  0  0  0  0
   -1.2389   -0.8049    0.0034 C   0  0  2  0  0  0  0  0  0  0  0  0
   -2.1499   -0.2136    0.0954 H   0  0  0  0  0  0  0  0  0  0  0  0
   -1.0989   -1.6740    1.1692 N   0  0  0  0  0  0  0  0  0  0  0  0
    0.0567   -2.3984    1.4492 C   0  0  0  0  0  0  0  0  0  0  0  0
   -0.0354   -3.5167    2.2764 C   0  0  0  0  0  0  0  0  0  0  0  0
    1.0945   -4.2461    2.5863 C   0  0  0  0  0  0  0  0  0  0  0  0
    2.3272   -3.8715    2.0799 C   0  0  0  0  0  0  0  0  0  0  0  0
    2.4246   -2.7667    1.2537 C   0  0  0  0  0  0  0  0  0  0  0  0
    1.2958   -2.0410    0.9349 C   0  0  0  0  0  0  0  0  0  0  0  0
    1.4193   -0.6533   -0.1605 S   0  0  0  0  0  0  0  0  0  0  0  0
    1.5359   -1.1702   -1.4790 O   0  0  0  0  0  0  0  0  0  0  0  0
    2.3708    0.2385    0.4040 O   0  0  0  0  0  0  0  0  0  0  0  0
    3.7684   -4.7996    2.4872 S   0  0  0  0  0  0  0  0  0  0  0  0
    3.4490   -6.1657    2.2617 O   0  0  0  0  0  0  0  0  0  0  0  0
    4.8606   -4.1565    1.8448 O   0  0  0  0  0  0  0  0  0  0  0  0
    4.0133   -4.6336    4.1166 N   0  0  0  0  0  0  0  0  0  0  0  0
    0.9695   -5.6384    3.6156 Cl  0  0  0  0  0  0  0  0  0  0  0  0
   -1.3039   -1.6530   -1.2684 C   0  0  0  0  0  0  0  0  0  0  0  0
   -2.8291   -2.6350   -1.2631 S   0  0  0  0  0  0  0  0  0  0  0  0
   -2.7541   -3.5705   -2.8155 C   0  0  0  0  0  0  0  0  0  0  0  0
   -3.9978   -4.4529   -2.9398 C   0  0  0  0  0  0  0  0  0  0  0  0
   -5.1425   -3.6486   -2.9349 F   0  0  0  0  0  0  0  0  0  0  0  0
   -3.9400   -5.1744   -4.1370 F   0  0  0  0  0  0  0  0  0  0  0  0
   -4.0483   -5.3424   -1.8612 F   0  0  0  0  0  0  0  0  0  0  0  0
    0.7799    2.0116   -0.1019 H   0  0  0  0  0  0  0  0  0  0  0  0
   -0.8087    1.8713   -0.8925 H   0  0  0  0  0  0  0  0  0  0  0  0
   -0.6944    1.8596    0.8838 H   0  0  0  0  0  0  0  0  0  0  0  0
   -1.8493   -1.7506    1.7791 H   0  0  0  0  0  0  0  0  0  0  0  0
   -0.9939   -3.8130    2.6762 H   0  0  0  0  0  0  0  0  0  0  0  0
    3.3853   -2.4717    0.8582 H   0  0  0  0  0  0  0  0  0  0  0  0
    3.4042   -4.0957    4.6463 H   0  0  0  0  0  0  0  0  0  0  0  0
    4.7659   -5.0742    4.5413 H   0  0  0  0  0  0  0  0  0  0  0  0
   -1.2950   -1.0003   -2.1413 H   0  0  0  0  0  0  0  0  0  0  0  0
   -0.4425   -2.3200   -1.3048 H   0  0  0  0  0  0  0  0  0  0  0  0
   -2.7148   -2.8775   -3.6558 H   0  0  0  0  0  0  0  0  0  0  0  0
   -1.8622   -4.1972   -2.8193 H   0  0  0  0  0  0  0  0  0  0  0  0
  1  2  1  0  0  0  0
  1 27  1  0  0  0  0
  1 28  1  0  0  0  0
  1 29  1  0  0  0  0
  2 12  1  0  0  0  0
  2  3  1  0  0  0  0
  3  4  1  1  0  0  0
  3  5  1  0  0  0  0
  3 20  1  0  0  0  0
  5  6  1  0  0  0  0
  5 30  1  0  0  0  0
  6 11  2  0  0  0  0
  6  7  1  0  0  0  0
  7  8  2  0  0  0  0
  7 31  1  0  0  0  0
  8  9  1  0  0  0  0
  8 19  1  0  0  0  0
  9 10  2  0  0  0  0
  9 15  1  0  0  0  0
 10 11  1  0  0  0  0
 10 32  1  0  0  0  0
 11 12  1  0  0  0  0
 12 13  2  0  0  0  0
 12 14  2  0  0  0  0
 15 16  2  0  0  0  0
 15 17  2  0  0  0  0
 15 18  1  0  0  0  0
 18 33  1  0  0  0  0
 18 34  1  0  0  0  0
 20 21  1  0  0  0  0
 20 35  1  0  0  0  0
 20 36  1  0  0  0  0
 21 22  1  0  0  0  0
 22 23  1  0  0  0  0
 22 37  1  0  0  0  0
 22 38  1  0  0  0  0
 23 24  1  0  0  0  0
 23 25  1  0  0  0  0
 23 26  1  0  0  0  0
M  END
$$$$
