ZINC02570817
 OpenBabel08292219463D

 31 32  0  0  0  0  0  0  0  0999 V2000
    0.0095    1.3886   -0.0094 C   0  0  0  0  0  0  0  0  0  0  0  0
    1.1937    2.1074    0.0524 C   0  0  0  0  0  0  0  0  0  0  0  0
    2.4076    1.4530    0.0878 C   0  0  0  0  0  0  0  0  0  0  0  0
    2.4511    0.0644    0.0615 C   0  0  0  0  0  0  0  0  0  0  0  0
    1.2533   -0.6670   -0.0007 C   0  0  0  0  0  0  0  0  0  0  0  0
    0.0313    0.0121   -0.0359 C   0  0  0  0  0  0  0  0  0  0  0  0
    1.2843   -2.1396   -0.0296 C   0  0  0  0  0  0  0  0  0  0  0  0
    1.0781   -2.7317   -1.0716 O   0  0  0  0  0  0  0  0  0  0  0  0
    1.5661   -2.8971    1.2074 C   0  0  0  0  0  0  0  0  0  0  0  0
    1.6846   -2.2281    2.4278 C   0  0  0  0  0  0  0  0  0  0  0  0
    1.9476   -2.9407    3.5785 C   0  0  0  0  0  0  0  0  0  0  0  0
    2.0943   -4.3169    3.5260 C   0  0  0  0  0  0  0  0  0  0  0  0
    1.9780   -4.9861    2.3190 C   0  0  0  0  0  0  0  0  0  0  0  0
    1.7094   -4.2857    1.1621 C   0  0  0  0  0  0  0  0  0  0  0  0
    2.4556   -5.2862    5.1090 Br  0  0  0  0  0  0  0  0  0  0  0  0
    3.6713   -0.5965    0.0960 N   0  0  0  0  0  0  0  0  0  0  0  0
    3.6880    2.2449    0.1544 C   0  0  0  0  0  0  0  0  0  0  0  0
    4.2362    2.4317   -1.2368 C   0  0  0  0  0  0  0  0  0  0  0  0
    3.6423    1.9649   -2.1938 O   0  0  0  0  0  0  0  0  0  0  0  0
    5.2737    3.0495   -1.4054 O   0  0  0  0  0  1  0  0  0  0  0  0
   -0.9353    1.9113   -0.0325 H   0  0  0  0  0  0  0  0  0  0  0  0
    1.1655    3.1868    0.0727 H   0  0  0  0  0  0  0  0  0  0  0  0
   -0.8943   -0.5424   -0.0838 H   0  0  0  0  0  0  0  0  0  0  0  0
    1.5708   -1.1549    2.4699 H   0  0  0  0  0  0  0  0  0  0  0  0
    2.0398   -2.4246    4.5227 H   0  0  0  0  0  0  0  0  0  0  0  0
    2.0938   -6.0594    2.2846 H   0  0  0  0  0  0  0  0  0  0  0  0
    1.6141   -4.8093    0.2223 H   0  0  0  0  0  0  0  0  0  0  0  0
    4.4981   -0.0903    0.0627 H   0  0  0  0  0  0  0  0  0  0  0  0
    3.6972   -1.5644    0.1535 H   0  0  0  0  0  0  0  0  0  0  0  0
    3.4896    3.2195    0.6006 H   0  0  0  0  0  0  0  0  0  0  0  0
    4.4160    1.7082    0.7628 H   0  0  0  0  0  0  0  0  0  0  0  0
  1  6  2  0  0  0  0
  1  2  1  0  0  0  0
  1 21  1  0  0  0  0
  2  3  2  0  0  0  0
  2 22  1  0  0  0  0
  3  4  1  0  0  0  0
  3 17  1  0  0  0  0
  4  5  2  0  0  0  0
  4 16  1  0  0  0  0
  5  6  1  0  0  0  0
  5  7  1  0  0  0  0
  6 23  1  0  0  0  0
  7  8  2  0  0  0  0
  7  9  1  0  0  0  0
  9 14  2  0  0  0  0
  9 10  1  0  0  0  0
 10 11  2  0  0  0  0
 10 24  1  0  0  0  0
 11 12  1  0  0  0  0
 11 25  1  0  0  0  0
 12 13  2  0  0  0  0
 12 15  1  0  0  0  0
 13 14  1  0  0  0  0
 13 26  1  0  0  0  0
 14 27  1  0  0  0  0
 16 28  1  0  0  0  0
 16 29  1  0  0  0  0
 17 18  1  0  0  0  0
 17 30  1  0  0  0  0
 17 31  1  0  0  0  0
 18 19  2  0  0  0  0
 18 20  1  0  0  0  0
M  END
$$$$
