ZINC01530555
 OpenBabel08292219463D

 27 28  0  0  0  0  0  0  0  0999 V2000
   -0.0164    1.3606    0.0095 C   0  0  0  0  0  0  0  0  0  0  0  0
    1.2014    1.8181    0.0004 N   0  0  0  0  0  0  0  0  0  0  0  0
    2.0711    0.7788   -0.0135 C   0  0  0  0  0  0  0  0  0  0  0  0
    3.4818    0.6749   -0.0276 C   0  0  0  0  0  0  0  0  0  0  0  0
    4.1818    1.6731   -0.0285 O   0  0  0  0  0  0  0  0  0  0  0  0
    4.0343   -0.5584   -0.0395 N   0  0  0  0  0  0  0  0  0  0  0  0
    4.9994   -0.6547   -0.0489 H   0  0  0  0  0  0  0  0  0  0  0  0
    3.2421   -1.6676   -0.0379 C   0  0  0  0  0  0  0  0  0  0  0  0
    1.9305   -1.5844   -0.0253 N   0  0  0  0  0  0  0  0  0  0  0  0
    1.3128   -0.3975   -0.0126 C   0  0  0  0  0  0  0  0  0  0  0  0
    0.0021   -0.0041    0.0020 N   0  0  0  0  0  0  0  0  0  0  0  0
   -1.1673   -0.8865    0.0089 C   0  0  0  0  0  0  0  0  0  0  0  0
   -2.3590   -0.0979    0.0243 O   0  0  0  0  0  0  0  0  0  0  0  0
   -3.5641   -0.8659    0.0321 C   0  0  0  0  0  0  0  0  0  0  0  0
   -4.7693    0.0765    0.0485 C   0  0  0  0  0  0  0  0  0  0  0  0
   -4.8056    0.8246   -1.1685 O   0  0  0  0  0  0  0  0  0  0  0  0
    3.8310   -2.9070   -0.0502 N   0  0  0  0  0  0  0  0  0  0  0  0
   -0.9084    1.9694    0.0254 H   0  0  0  0  0  0  0  0  0  0  0  0
   -1.1565   -1.5110   -0.8844 H   0  0  0  0  0  0  0  0  0  0  0  0
   -1.1393   -1.5199    0.8955 H   0  0  0  0  0  0  0  0  0  0  0  0
   -3.6029   -1.4900   -0.8607 H   0  0  0  0  0  0  0  0  0  0  0  0
   -3.5858   -1.4989    0.9192 H   0  0  0  0  0  0  0  0  0  0  0  0
   -5.6852   -0.5067    0.1440 H   0  0  0  0  0  0  0  0  0  0  0  0
   -4.6843    0.7604    0.8930 H   0  0  0  0  0  0  0  0  0  0  0  0
   -5.5457    1.4441   -1.2275 H   0  0  0  0  0  0  0  0  0  0  0  0
    4.7979   -2.9845   -0.0598 H   0  0  0  0  0  0  0  0  0  0  0  0
    3.2805   -3.7056   -0.0492 H   0  0  0  0  0  0  0  0  0  0  0  0
  1 11  1  0  0  0  0
  1  2  2  0  0  0  0
  1 18  1  0  0  0  0
  2  3  1  0  0  0  0
  3 10  2  0  0  0  0
  3  4  1  0  0  0  0
  4  5  2  0  0  0  0
  4  6  1  0  0  0  0
  6  7  1  0  0  0  0
  6  8  1  0  0  0  0
  8  9  2  0  0  0  0
  8 17  1  0  0  0  0
  9 10  1  0  0  0  0
 10 11  1  0  0  0  0
 11 12  1  0  0  0  0
 12 13  1  0  0  0  0
 12 19  1  0  0  0  0
 12 20  1  0  0  0  0
 13 14  1  0  0  0  0
 14 15  1  0  0  0  0
 14 21  1  0  0  0  0
 14 22  1  0  0  0  0
 15 16  1  0  0  0  0
 15 23  1  0  0  0  0
 15 24  1  0  0  0  0
 16 25  1  0  0  0  0
 17 26  1  0  0  0  0
 17 27  1  0  0  0  0
M  END
$$$$
