ZINC04097476
 OpenBabel08292219463D

 28 28  0  0  0  0  0  0  0  0999 V2000
    2.5232    0.4766   -1.0075 C   0  0  0  0  0  0  0  0  0  0  0  0
    1.1861    1.0351   -0.5935 C   0  0  0  0  0  0  0  0  0  0  0  0
    0.9558    1.2521    0.5774 O   0  0  0  0  0  0  0  0  0  0  0  0
    0.2463    1.2936   -1.5243 N   0  0  0  0  0  0  0  0  0  0  0  0
   -1.0317    1.7098   -1.1320 C   0  0  0  0  0  0  0  0  0  0  0  0
   -1.1768    2.8100   -0.3006 C   0  0  0  0  0  0  0  0  0  0  0  0
   -2.4523    3.2279    0.0851 C   0  0  0  0  0  0  0  0  0  0  0  0
   -3.5763    2.5281   -0.3591 C   0  0  0  0  0  0  0  0  0  0  0  0
   -3.4222    1.4253   -1.1853 C   0  0  0  0  0  0  0  0  0  0  0  0
   -2.1522    1.0166   -1.5716 C   0  0  0  0  0  0  0  0  0  0  0  0
   -1.9260   -0.6497   -2.8212 I   0  0  0  0  0  0  0  0  0  0  0  0
   -4.5484    0.7230   -1.6313 N   0  0  0  0  0  0  0  0  0  0  0  0
   -5.5458    1.3773   -2.2587 C   0  0  0  0  0  0  0  0  0  0  0  0
   -5.5133    2.5861   -2.3524 O   0  0  0  0  0  0  0  0  0  0  0  0
   -6.7013    0.6069   -2.8438 C   0  0  0  0  0  0  0  0  0  0  0  0
   -5.4927    3.1442    0.2215 I   0  0  0  0  0  0  0  0  0  0  0  0
   -2.6118    4.4027    0.9650 C   0  0  0  0  0  0  0  0  0  0  0  0
   -2.6220    4.2611    2.1715 O   0  0  0  0  0  0  0  0  0  0  0  0
    0.5147    3.8490    0.3691 I   0  0  0  0  0  0  0  0  0  0  0  0
    3.2118    1.2963   -1.2121 H   0  0  0  0  0  0  0  0  0  0  0  0
    2.9231   -0.1420   -0.2040 H   0  0  0  0  0  0  0  0  0  0  0  0
    2.4016   -0.1287   -1.9058 H   0  0  0  0  0  0  0  0  0  0  0  0
    0.4565    1.1952   -2.4661 H   0  0  0  0  0  0  0  0  0  0  0  0
   -4.6108   -0.2344   -1.4887 H   0  0  0  0  0  0  0  0  0  0  0  0
   -7.4859    0.5038   -2.0942 H   0  0  0  0  0  0  0  0  0  0  0  0
   -7.0934    1.1414   -3.7090 H   0  0  0  0  0  0  0  0  0  0  0  0
   -6.3604   -0.3817   -3.1513 H   0  0  0  0  0  0  0  0  0  0  0  0
   -2.7459    5.6319    0.4299 O   0  0  0  0  0  1  0  0  0  0  0  0
  1  2  1  0  0  0  0
  1 20  1  0  0  0  0
  1 21  1  0  0  0  0
  1 22  1  0  0  0  0
  2  3  2  0  0  0  0
  2  4  1  0  0  0  0
  4  5  1  0  0  0  0
  4 23  1  0  0  0  0
  5 10  2  0  0  0  0
  5  6  1  0  0  0  0
  6  7  2  0  0  0  0
  6 19  1  0  0  0  0
  7  8  1  0  0  0  0
  7 17  1  0  0  0  0
  8  9  2  0  0  0  0
  8 16  1  0  0  0  0
  9 10  1  0  0  0  0
  9 12  1  0  0  0  0
 10 11  1  0  0  0  0
 12 13  1  0  0  0  0
 12 24  1  0  0  0  0
 13 14  2  0  0  0  0
 13 15  1  0  0  0  0
 15 25  1  0  0  0  0
 15 26  1  0  0  0  0
 15 27  1  0  0  0  0
 17 18  2  0  0  0  0
 17 28  1  0  0  0  0
M  END
$$$$
