ZINC00057421
 OpenBabel08292219463D

 28 29  0  0  0  0  0  0  0  0999 V2000
   -0.0187    1.5258    0.0104 C   0  0  0  0  0  0  0  0  0  0  0  0
    0.0021   -0.0041    0.0020 C   0  0  0  0  0  0  0  0  0  0  0  0
    0.6878   -0.4765   -1.2033 N   0  0  0  0  0  0  0  0  0  0  0  0
   -0.0363   -0.6881   -2.3091 C   0  0  0  0  0  0  0  0  0  0  0  0
    0.5302   -1.1331   -3.4881 C   0  0  0  0  0  0  0  0  0  0  0  0
    1.9820   -1.3820   -3.5263 C   0  0  0  0  0  0  0  0  0  0  0  0
    2.5334   -1.7745   -4.5393 O   0  0  0  0  0  0  0  0  0  0  0  0
    2.7378   -1.1348   -2.2857 C   0  0  0  0  0  0  0  0  0  0  0  0
    2.0479   -0.6774   -1.1493 C   0  0  0  0  0  0  0  0  0  0  0  0
    2.7158   -0.4466   -0.0256 N   0  0  0  0  0  0  0  0  0  0  0  0
    4.0168   -0.6298    0.0573 C   0  0  0  0  0  0  0  0  0  0  0  0
    4.7588   -1.0735   -1.0258 C   0  0  0  0  0  0  0  0  0  0  0  0
    4.1171   -1.3418   -2.2218 C   0  0  0  0  0  0  0  0  0  0  0  0
    4.7166   -0.3496    1.3622 C   0  0  0  0  0  0  0  0  0  0  0  0
   -0.2979   -1.3541   -4.6787 C   0  0  0  0  0  0  0  0  0  0  0  0
   -1.5029   -1.1440   -4.6337 O   0  0  0  0  0  0  0  0  0  0  0  0
    0.2162   -1.7485   -5.7171 O   0  0  0  0  0  1  0  0  0  0  0  0
    1.0039    1.9031    0.0027 H   0  0  0  0  0  0  0  0  0  0  0  0
   -0.5459    1.8868   -0.8726 H   0  0  0  0  0  0  0  0  0  0  0  0
   -0.5289    1.8773    0.9072 H   0  0  0  0  0  0  0  0  0  0  0  0
    0.5293   -0.3651    0.8851 H   0  0  0  0  0  0  0  0  0  0  0  0
   -1.0205   -0.3814    0.0098 H   0  0  0  0  0  0  0  0  0  0  0  0
   -1.1002   -0.5050   -2.2786 H   0  0  0  0  0  0  0  0  0  0  0  0
    5.8254   -1.2160   -0.9348 H   0  0  0  0  0  0  0  0  0  0  0  0
    4.6680   -1.6898   -3.0830 H   0  0  0  0  0  0  0  0  0  0  0  0
    4.7297   -1.2549    1.9692 H   0  0  0  0  0  0  0  0  0  0  0  0
    5.7397   -0.0299    1.1645 H   0  0  0  0  0  0  0  0  0  0  0  0
    4.1866    0.4386    1.8969 H   0  0  0  0  0  0  0  0  0  0  0  0
  1  2  1  0  0  0  0
  1 18  1  0  0  0  0
  1 19  1  0  0  0  0
  1 20  1  0  0  0  0
  2  3  1  0  0  0  0
  2 21  1  0  0  0  0
  2 22  1  0  0  0  0
  3  9  1  0  0  0  0
  3  4  1  0  0  0  0
  4  5  2  0  0  0  0
  4 23  1  0  0  0  0
  5  6  1  0  0  0  0
  5 15  1  0  0  0  0
  6  7  2  0  0  0  0
  6  8  1  0  0  0  0
  8 13  2  0  0  0  0
  8  9  1  0  0  0  0
  9 10  2  0  0  0  0
 10 11  1  0  0  0  0
 11 12  2  0  0  0  0
 11 14  1  0  0  0  0
 12 13  1  0  0  0  0
 12 24  1  0  0  0  0
 13 25  1  0  0  0  0
 14 26  1  0  0  0  0
 14 27  1  0  0  0  0
 14 28  1  0  0  0  0
 15 16  2  0  0  0  0
 15 17  1  0  0  0  0
M  END
$$$$
