ZINC00032350
 OpenBabel08292219463D

 28 30  0  0  0  0  0  0  0  0999 V2000
   -0.0187    1.5258    0.0104 C   0  0  0  0  0  0  0  0  0  0  0  0
    0.0021   -0.0041    0.0020 C   0  0  0  0  0  0  0  0  0  0  0  0
   -1.3723   -0.5112    0.0124 N   0  0  0  0  0  0  0  0  0  0  0  0
   -1.9939   -0.7357   -1.1932 C   0  0  0  0  0  0  0  0  0  0  0  0
   -1.3440   -0.4889   -2.3972 C   0  0  0  0  0  0  0  0  0  0  0  0
   -1.9945   -0.7241   -3.5943 C   0  0  0  0  0  0  0  0  0  0  0  0
   -3.3080   -1.2112   -3.6065 C   0  0  0  0  0  0  0  0  0  0  0  0
   -3.9667   -1.4605   -2.4204 C   0  0  0  0  0  0  0  0  0  0  0  0
   -3.3157   -1.2252   -1.2108 C   0  0  0  0  0  0  0  0  0  0  0  0
   -3.9668   -1.4712    0.0875 C   0  0  0  0  0  0  0  0  0  0  0  0
   -5.1071   -1.8941    0.1662 O   0  0  0  0  0  0  0  0  0  0  0  0
   -3.1596   -1.1772    1.2873 C   0  0  0  0  0  0  0  0  0  0  0  0
   -1.9312   -0.7274    1.1432 N   0  0  0  0  0  0  0  0  0  0  0  0
   -3.7204   -1.3890    2.6299 C   0  0  0  0  0  0  0  0  0  0  0  0
   -3.0455   -1.1432    3.6206 O   0  0  0  0  0  0  0  0  0  0  0  0
   -4.8619   -1.8112    2.7566 O   0  0  0  0  0  1  0  0  0  0  0  0
   -3.7066   -1.3524   -4.9045 O   0  0  0  0  0  0  0  0  0  0  0  0
   -2.7827   -0.5642   -5.6777 C   0  0  0  0  0  0  0  0  0  0  0  0
   -1.5813   -0.5649   -4.8848 O   0  0  0  0  0  0  0  0  0  0  0  0
    1.0039    1.9031    0.0027 H   0  0  0  0  0  0  0  0  0  0  0  0
   -0.5459    1.8868   -0.8726 H   0  0  0  0  0  0  0  0  0  0  0  0
   -0.5289    1.8773    0.9072 H   0  0  0  0  0  0  0  0  0  0  0  0
    0.5123   -0.3556   -0.8948 H   0  0  0  0  0  0  0  0  0  0  0  0
    0.5293   -0.3651    0.8851 H   0  0  0  0  0  0  0  0  0  0  0  0
   -0.3314   -0.1133   -2.3973 H   0  0  0  0  0  0  0  0  0  0  0  0
   -4.9792   -1.8364   -2.4290 H   0  0  0  0  0  0  0  0  0  0  0  0
   -2.6016   -1.0286   -6.6471 H   0  0  0  0  0  0  0  0  0  0  0  0
   -3.1579    0.4515   -5.8030 H   0  0  0  0  0  0  0  0  0  0  0  0
  1  2  1  0  0  0  0
  1 20  1  0  0  0  0
  1 21  1  0  0  0  0
  1 22  1  0  0  0  0
  2  3  1  0  0  0  0
  2 23  1  0  0  0  0
  2 24  1  0  0  0  0
  3 13  1  0  0  0  0
  3  4  1  0  0  0  0
  4  9  2  0  0  0  0
  4  5  1  0  0  0  0
  5  6  2  0  0  0  0
  5 25  1  0  0  0  0
  6 19  1  0  0  0  0
  6  7  1  0  0  0  0
  7  8  2  0  0  0  0
  7 17  1  0  0  0  0
  8  9  1  0  0  0  0
  8 26  1  0  0  0  0
  9 10  1  0  0  0  0
 10 11  2  0  0  0  0
 10 12  1  0  0  0  0
 12 13  2  0  0  0  0
 12 14  1  0  0  0  0
 14 15  2  0  0  0  0
 14 16  1  0  0  0  0
 17 18  1  0  0  0  0
 18 19  1  0  0  0  0
 18 27  1  0  0  0  0
 18 28  1  0  0  0  0
M  END
$$$$
