ZINC00002191
 OpenBabel08292219463D

 33 34  0  0  0  0  0  0  0  0999 V2000
    0.1096    1.5031   -0.0016 C   0  0  0  0  0  0  0  0  0  0  0  0
    0.0965   -0.0038   -0.0068 C   0  0  0  0  0  0  0  0  0  0  0  0
   -0.5808   -0.6832   -1.0040 C   0  0  0  0  0  0  0  0  0  0  0  0
   -0.5968   -2.0625   -1.0147 C   0  0  0  0  0  0  0  0  0  0  0  0
    0.0725   -2.7730   -0.0165 C   0  0  0  0  0  0  0  0  0  0  0  0
    0.7539   -2.0813    0.9867 C   0  0  0  0  0  0  0  0  0  0  0  0
    0.7666   -0.7019    0.9824 C   0  0  0  0  0  0  0  0  0  0  0  0
    0.0592   -4.2518   -0.0214 C   0  0  0  0  0  0  0  0  0  0  0  0
   -0.0569   -4.8559   -1.0717 O   0  0  0  0  0  0  0  0  0  0  0  0
    0.1857   -4.9894    1.2376 C   0  0  0  0  0  0  0  0  0  0  0  0
    0.1920   -4.4440    2.5070 C   0  0  0  0  0  0  0  0  0  0  0  0
    0.3325   -5.5027    3.4075 C   0  0  0  0  0  0  0  0  0  0  0  0
    0.4081   -6.6514    2.6914 C   0  0  0  0  0  0  0  0  0  0  0  0
    0.3141   -6.3537    1.3726 N   0  0  0  0  0  0  0  0  0  0  0  0
    0.3473   -7.3218    0.2735 C   0  0  0  0  0  0  0  0  0  0  0  0
    0.5648   -8.0348    3.2682 C   0  0  0  0  0  0  0  0  0  0  0  0
   -0.7900   -8.5811    3.6386 C   0  0  0  0  0  0  0  0  0  0  0  0
   -1.7901   -7.9094    3.4514 O   0  0  0  0  0  0  0  0  0  0  0  0
   -0.8859   -9.6949    4.1253 O   0  0  0  0  0  1  0  0  0  0  0  0
    0.9618    1.8611   -0.5792 H   0  0  0  0  0  0  0  0  0  0  0  0
   -0.8131    1.8760   -0.4461 H   0  0  0  0  0  0  0  0  0  0  0  0
    0.1896    1.8622    1.0245 H   0  0  0  0  0  0  0  0  0  0  0  0
   -1.0984   -0.1324   -1.7754 H   0  0  0  0  0  0  0  0  0  0  0  0
   -1.1261   -2.5916   -1.7934 H   0  0  0  0  0  0  0  0  0  0  0  0
    1.2732   -2.6249    1.7620 H   0  0  0  0  0  0  0  0  0  0  0  0
    1.2970   -0.1655    1.7553 H   0  0  0  0  0  0  0  0  0  0  0  0
    0.1048   -3.3967    2.7561 H   0  0  0  0  0  0  0  0  0  0  0  0
    0.3742   -5.4206    4.4836 H   0  0  0  0  0  0  0  0  0  0  0  0
    1.3780   -7.4709   -0.0484 H   0  0  0  0  0  0  0  0  0  0  0  0
   -0.0683   -8.2707    0.6125 H   0  0  0  0  0  0  0  0  0  0  0  0
   -0.2430   -6.9441   -0.5613 H   0  0  0  0  0  0  0  0  0  0  0  0
    1.0295   -8.6865    2.5283 H   0  0  0  0  0  0  0  0  0  0  0  0
    1.1934   -7.9886    4.1575 H   0  0  0  0  0  0  0  0  0  0  0  0
  1  2  1  0  0  0  0
  1 20  1  0  0  0  0
  1 21  1  0  0  0  0
  1 22  1  0  0  0  0
  2  7  2  0  0  0  0
  2  3  1  0  0  0  0
  3  4  2  0  0  0  0
  3 23  1  0  0  0  0
  4  5  1  0  0  0  0
  4 24  1  0  0  0  0
  5  6  2  0  0  0  0
  5  8  1  0  0  0  0
  6  7  1  0  0  0  0
  6 25  1  0  0  0  0
  7 26  1  0  0  0  0
  8  9  2  0  0  0  0
  8 10  1  0  0  0  0
 10 14  1  0  0  0  0
 10 11  2  0  0  0  0
 11 12  1  0  0  0  0
 11 27  1  0  0  0  0
 12 13  2  0  0  0  0
 12 28  1  0  0  0  0
 13 14  1  0  0  0  0
 13 16  1  0  0  0  0
 14 15  1  0  0  0  0
 15 29  1  0  0  0  0
 15 30  1  0  0  0  0
 15 31  1  0  0  0  0
 16 17  1  0  0  0  0
 16 32  1  0  0  0  0
 16 33  1  0  0  0  0
 17 18  2  0  0  0  0
 17 19  1  0  0  0  0
M  END
$$$$
