ZINC00579472
 OpenBabel08292219463D

 39 41  0  0  0  0  0  0  0  0999 V2000
   -0.0184    1.5028    0.0103 C   0  0  0  0  0  0  0  0  0  0  0  0
    0.0021   -0.0041    0.0020 C   0  0  0  0  0  0  0  0  0  0  0  0
    0.0055   -0.6781   -1.2059 C   0  0  0  0  0  0  0  0  0  0  0  0
    0.0243   -2.0619   -1.2091 C   0  0  0  0  0  0  0  0  0  0  0  0
    0.0392   -2.7277    0.0207 C   0  0  0  0  0  0  0  0  0  0  0  0
    0.0345   -1.9756    1.1943 C   0  0  0  0  0  0  0  0  0  0  0  0
    0.0218   -0.6592    1.1466 N   0  0  0  0  0  0  0  0  0  0  0  0
    0.0591   -4.2085    0.0753 C   0  0  0  0  0  0  0  0  0  0  0  0
    0.7669   -4.8595    1.0983 C   0  0  0  0  0  0  0  0  0  0  0  0
    0.7723   -6.2548    1.1306 C   0  0  0  0  0  0  0  0  0  0  0  0
    0.0756   -6.9395    0.1471 C   0  0  0  0  0  0  0  0  0  0  0  0
   -0.5997   -6.2277   -0.8303 C   0  0  0  0  0  0  0  0  0  0  0  0
   -0.5961   -4.9103   -0.8389 N   0  0  0  0  0  0  0  0  0  0  0  0
    0.0501   -8.6753    0.1403 Cl  0  0  0  0  0  0  0  0  0  0  0  0
    1.4963   -4.0786    2.1258 C   0  0  0  0  0  0  0  0  0  0  0  0
    2.3642   -3.0571    1.7428 C   0  0  0  0  0  0  0  0  0  0  0  0
    3.0405   -2.3335    2.7037 C   0  0  0  0  0  0  0  0  0  0  0  0
    2.8588   -2.6203    4.0447 C   0  0  0  0  0  0  0  0  0  0  0  0
    1.9988   -3.6327    4.4307 C   0  0  0  0  0  0  0  0  0  0  0  0
    1.3124   -4.3590    3.4789 C   0  0  0  0  0  0  0  0  0  0  0  0
    3.7266   -1.6928    5.2659 S   0  0  0  0  0  0  0  0  0  0  0  0
    3.8236   -2.5657    6.3831 O   0  0  0  0  0  0  0  0  0  0  0  0
    4.8961   -1.2287    4.6056 O   0  0  0  0  0  0  0  0  0  0  0  0
    2.6341   -0.2982    5.6557 C   0  0  0  0  0  0  0  0  0  0  0  0
    1.0042    1.8801    0.0026 H   0  0  0  0  0  0  0  0  0  0  0  0
   -0.5455    1.8639   -0.8728 H   0  0  0  0  0  0  0  0  0  0  0  0
   -0.5286    1.8543    0.9071 H   0  0  0  0  0  0  0  0  0  0  0  0
   -0.0067   -0.1303   -2.1366 H   0  0  0  0  0  0  0  0  0  0  0  0
    0.0270   -2.6135   -2.1376 H   0  0  0  0  0  0  0  0  0  0  0  0
    0.0459   -2.4764    2.1511 H   0  0  0  0  0  0  0  0  0  0  0  0
    1.3067   -6.7881    1.9029 H   0  0  0  0  0  0  0  0  0  0  0  0
   -1.1420   -6.7618   -1.5965 H   0  0  0  0  0  0  0  0  0  0  0  0
    2.5074   -2.8328    0.6961 H   0  0  0  0  0  0  0  0  0  0  0  0
    3.7132   -1.5419    2.4082 H   0  0  0  0  0  0  0  0  0  0  0  0
    1.8612   -3.8525    5.4791 H   0  0  0  0  0  0  0  0  0  0  0  0
    0.6376   -5.1460    3.7815 H   0  0  0  0  0  0  0  0  0  0  0  0
    1.6845   -0.6756    6.0353 H   0  0  0  0  0  0  0  0  0  0  0  0
    3.1036    0.3308    6.4121 H   0  0  0  0  0  0  0  0  0  0  0  0
    2.4576    0.2882    4.7540 H   0  0  0  0  0  0  0  0  0  0  0  0
  1  2  1  0  0  0  0
  1 25  1  0  0  0  0
  1 26  1  0  0  0  0
  1 27  1  0  0  0  0
  2  7  2  0  0  0  0
  2  3  1  0  0  0  0
  3  4  2  0  0  0  0
  3 28  1  0  0  0  0
  4  5  1  0  0  0  0
  4 29  1  0  0  0  0
  5  6  2  0  0  0  0
  5  8  1  0  0  0  0
  6  7  1  0  0  0  0
  6 30  1  0  0  0  0
  8 13  2  0  0  0  0
  8  9  1  0  0  0  0
  9 10  2  0  0  0  0
  9 15  1  0  0  0  0
 10 11  1  0  0  0  0
 10 31  1  0  0  0  0
 11 12  2  0  0  0  0
 11 14  1  0  0  0  0
 12 13  1  0  0  0  0
 12 32  1  0  0  0  0
 15 20  2  0  0  0  0
 15 16  1  0  0  0  0
 16 17  2  0  0  0  0
 16 33  1  0  0  0  0
 17 18  1  0  0  0  0
 17 34  1  0  0  0  0
 18 19  2  0  0  0  0
 18 21  1  0  0  0  0
 19 20  1  0  0  0  0
 19 35  1  0  0  0  0
 20 36  1  0  0  0  0
 21 22  2  0  0  0  0
 21 23  2  0  0  0  0
 21 24  1  0  0  0  0
 24 37  1  0  0  0  0
 24 38  1  0  0  0  0
 24 39  1  0  0  0  0
M  END
$$$$
