ZINC00490791
 OpenBabel08292219463D

 57 60  0  0  1  0  0  0  0  0999 V2000
   -0.0187    1.5258    0.0104 C   0  0  0  0  0  0  0  0  0  0  0  0
    0.0021   -0.0041    0.0020 C   0  0  0  0  0  0  0  0  0  0  0  0
    0.7074   -0.4901   -1.2379 C   0  0  0  0  0  0  0  0  0  0  0  0
    1.1483    0.3055   -2.0332 O   0  0  0  0  0  0  0  0  0  0  0  0
    0.8459   -1.8068   -1.4587 O   0  0  0  0  0  0  0  0  0  0  0  0
    1.5252   -2.1962   -2.6541 C   0  0  1  0  0  0  0  0  0  0  0  0
    1.3814   -1.4455   -3.4311 H   0  0  0  0  0  0  0  0  0  0  0  0
    3.0354   -2.3950   -2.3728 C   0  0  0  0  0  0  0  0  0  0  0  0
    3.3694   -3.8547   -2.7849 C   0  0  0  0  0  0  0  0  0  0  0  0
    2.2709   -4.1840   -3.8020 C   0  0  2  0  0  0  0  0  0  0  0  0
    2.4772   -3.6962   -4.7547 H   0  0  0  0  0  0  0  0  0  0  0  0
    1.0194   -3.5538   -3.1309 C   0  0  2  0  0  0  0  0  0  0  0  0
   -0.0861   -3.5374   -4.1692 C   0  0  0  0  0  0  0  0  0  0  0  0
   -0.4251   -5.0008   -4.4934 C   0  0  0  0  0  0  0  0  0  0  0  0
    0.7982   -5.7687   -4.9858 C   0  0  1  0  0  0  0  0  0  0  0  0
    1.1108   -5.3598   -5.9466 H   0  0  0  0  0  0  0  0  0  0  0  0
    1.9908   -5.6604   -4.0149 C   0  0  1  0  0  0  0  0  0  0  0  0
    1.7328   -6.1312   -3.0663 H   0  0  0  0  0  0  0  0  0  0  0  0
    3.2188   -6.3363   -4.6322 C   0  0  0  0  0  0  0  0  0  0  0  0
    2.9479   -7.8357   -4.7733 C   0  0  0  0  0  0  0  0  0  0  0  0
    1.6747   -8.0293   -5.5764 C   0  0  0  0  0  0  0  0  0  0  0  0
    1.7057   -8.8993   -6.5858 C   0  0  0  0  0  0  0  0  0  0  0  0
    0.5001   -9.1381   -7.3864 C   0  0  0  0  0  0  0  0  0  0  0  0
    0.5586   -9.6016   -8.5062 O   0  0  0  0  0  0  0  0  0  0  0  0
   -0.8232   -8.7757   -6.7410 C   0  0  0  0  0  0  0  0  0  0  0  0
   -0.6877   -7.3586   -6.1858 C   0  0  0  0  0  0  0  0  0  0  0  0
    0.4238   -7.2446   -5.1698 C   0  0  2  0  0  0  0  0  0  0  0  0
   -0.0923   -7.7707   -3.8290 C   0  0  0  0  0  0  0  0  0  0  0  0
    0.5944   -4.4002   -1.9293 C   0  0  0  0  0  0  0  0  0  0  0  0
    1.0039    1.9031    0.0027 H   0  0  0  0  0  0  0  0  0  0  0  0
   -0.5459    1.8868   -0.8726 H   0  0  0  0  0  0  0  0  0  0  0  0
   -0.5289    1.8773    0.9072 H   0  0  0  0  0  0  0  0  0  0  0  0
    0.5293   -0.3651    0.8851 H   0  0  0  0  0  0  0  0  0  0  0  0
   -1.0205   -0.3814    0.0098 H   0  0  0  0  0  0  0  0  0  0  0  0
    3.6221   -1.6948   -2.9675 H   0  0  0  0  0  0  0  0  0  0  0  0
    3.2407   -2.2494   -1.3122 H   0  0  0  0  0  0  0  0  0  0  0  0
    4.3539   -3.9086   -3.2495 H   0  0  0  0  0  0  0  0  0  0  0  0
    3.3107   -4.5213   -1.9245 H   0  0  0  0  0  0  0  0  0  0  0  0
   -0.9650   -3.0327   -3.7679 H   0  0  0  0  0  0  0  0  0  0  0  0
    0.2574   -3.0276   -5.0693 H   0  0  0  0  0  0  0  0  0  0  0  0
   -0.8101   -5.4838   -3.5953 H   0  0  0  0  0  0  0  0  0  0  0  0
   -1.1941   -5.0248   -5.2655 H   0  0  0  0  0  0  0  0  0  0  0  0
    3.4153   -5.9075   -5.6149 H   0  0  0  0  0  0  0  0  0  0  0  0
    4.0831   -6.1814   -3.9864 H   0  0  0  0  0  0  0  0  0  0  0  0
    3.7817   -8.3105   -5.2903 H   0  0  0  0  0  0  0  0  0  0  0  0
    2.8276   -8.2798   -3.7851 H   0  0  0  0  0  0  0  0  0  0  0  0
    2.6190   -9.4283   -6.8145 H   0  0  0  0  0  0  0  0  0  0  0  0
   -1.6193   -8.8077   -7.4849 H   0  0  0  0  0  0  0  0  0  0  0  0
   -1.0433   -9.4714   -5.9313 H   0  0  0  0  0  0  0  0  0  0  0  0
   -0.5064   -6.6695   -7.0106 H   0  0  0  0  0  0  0  0  0  0  0  0
   -1.6179   -7.0806   -5.6902 H   0  0  0  0  0  0  0  0  0  0  0  0
   -0.9666   -7.1951   -3.5251 H   0  0  0  0  0  0  0  0  0  0  0  0
   -0.3663   -8.8207   -3.9318 H   0  0  0  0  0  0  0  0  0  0  0  0
    0.6884   -7.6711   -3.0749 H   0  0  0  0  0  0  0  0  0  0  0  0
   -0.2193   -3.9012   -1.4029 H   0  0  0  0  0  0  0  0  0  0  0  0
    0.2583   -5.3780   -2.2742 H   0  0  0  0  0  0  0  0  0  0  0  0
    1.4414   -4.5243   -1.2545 H   0  0  0  0  0  0  0  0  0  0  0  0
  1  2  1  0  0  0  0
  1 30  1  0  0  0  0
  1 31  1  0  0  0  0
  1 32  1  0  0  0  0
  2  3  1  0  0  0  0
  2 33  1  0  0  0  0
  2 34  1  0  0  0  0
  3  4  2  0  0  0  0
  3  5  1  0  0  0  0
  5  6  1  0  0  0  0
  6  7  1  6  0  0  0
  6 12  1  0  0  0  0
  6  8  1  0  0  0  0
  8  9  1  0  0  0  0
  8 35  1  0  0  0  0
  8 36  1  0  0  0  0
  9 10  1  0  0  0  0
  9 37  1  0  0  0  0
  9 38  1  0  0  0  0
 10 11  1  6  0  0  0
 10 17  1  0  0  0  0
 10 12  1  0  0  0  0
 12 13  1  0  0  0  0
 12 29  1  1  0  0  0
 13 14  1  0  0  0  0
 13 39  1  0  0  0  0
 13 40  1  0  0  0  0
 14 15  1  0  0  0  0
 14 41  1  0  0  0  0
 14 42  1  0  0  0  0
 15 16  1  6  0  0  0
 15 27  1  0  0  0  0
 15 17  1  0  0  0  0
 17 18  1  1  0  0  0
 17 19  1  0  0  0  0
 19 20  1  0  0  0  0
 19 43  1  0  0  0  0
 19 44  1  0  0  0  0
 20 21  1  0  0  0  0
 20 45  1  0  0  0  0
 20 46  1  0  0  0  0
 21 27  1  0  0  0  0
 21 22  2  0  0  0  0
 22 23  1  0  0  0  0
 22 47  1  0  0  0  0
 23 24  2  0  0  0  0
 23 25  1  0  0  0  0
 25 26  1  0  0  0  0
 25 48  1  0  0  0  0
 25 49  1  0  0  0  0
 26 27  1  0  0  0  0
 26 50  1  0  0  0  0
 26 51  1  0  0  0  0
 27 28  1  1  0  0  0
 28 52  1  0  0  0  0
 28 53  1  0  0  0  0
 28 54  1  0  0  0  0
 29 55  1  0  0  0  0
 29 56  1  0  0  0  0
 29 57  1  0  0  0  0
M  END
$$$$
