ZINC00001408
 OpenBabel08292219463D

 34 35  0  0  1  0  0  0  0  0999 V2000
   -0.0187    1.5258    0.0104 C   0  0  0  0  0  0  0  0  0  0  0  0
    0.0021   -0.0041    0.0020 C   0  0  0  0  0  0  0  0  0  0  0  0
    0.6932   -0.4774    1.1597 O   0  0  0  0  0  0  0  0  0  0  0  0
    0.8012   -1.8140    1.3046 C   0  0  0  0  0  0  0  0  0  0  0  0
    0.3211   -2.5568    0.4699 O   0  0  0  0  0  0  0  0  0  0  0  0
    1.4971   -2.3713    2.4681 C   0  0  0  0  0  0  0  0  0  0  0  0
    1.6929   -3.6951    2.7503 C   0  0  0  0  0  0  0  0  0  0  0  0
    2.3680   -3.7711    3.8969 N   0  0  0  0  0  0  0  0  0  0  0  0
    2.6064   -2.5663    4.3493 C   0  0  0  0  0  0  0  0  0  0  0  0
    2.0916   -1.6639    3.4956 N   0  0  0  0  0  0  0  0  0  0  0  0
    2.1476   -0.2062    3.6310 C   0  0  2  0  0  0  0  0  0  0  0  0
    1.6406    0.2570    2.7844 H   0  0  0  0  0  0  0  0  0  0  0  0
    3.6084    0.2475    3.6611 C   0  0  0  0  0  0  0  0  0  0  0  0
    1.4670    0.2060    4.9108 C   0  0  0  0  0  0  0  0  0  0  0  0
    1.9400   -0.2558    6.1249 C   0  0  0  0  0  0  0  0  0  0  0  0
    1.3157    0.1222    7.2989 C   0  0  0  0  0  0  0  0  0  0  0  0
    0.2188    0.9624    7.2588 C   0  0  0  0  0  0  0  0  0  0  0  0
   -0.2537    1.4250    6.0448 C   0  0  0  0  0  0  0  0  0  0  0  0
    0.3732    1.0503    4.8711 C   0  0  0  0  0  0  0  0  0  0  0  0
    1.0039    1.9031    0.0027 H   0  0  0  0  0  0  0  0  0  0  0  0
   -0.5459    1.8868   -0.8726 H   0  0  0  0  0  0  0  0  0  0  0  0
   -0.5289    1.8773    0.9072 H   0  0  0  0  0  0  0  0  0  0  0  0
   -1.0205   -0.3814    0.0098 H   0  0  0  0  0  0  0  0  0  0  0  0
    0.5123   -0.3556   -0.8948 H   0  0  0  0  0  0  0  0  0  0  0  0
    1.3597   -4.5297    2.1514 H   0  0  0  0  0  0  0  0  0  0  0  0
    3.1362   -2.3338    5.2613 H   0  0  0  0  0  0  0  0  0  0  0  0
    4.1006   -0.0506    2.7354 H   0  0  0  0  0  0  0  0  0  0  0  0
    3.6500    1.3321    3.7618 H   0  0  0  0  0  0  0  0  0  0  0  0
    4.1153   -0.2157    4.5076 H   0  0  0  0  0  0  0  0  0  0  0  0
    2.7970   -0.9123    6.1561 H   0  0  0  0  0  0  0  0  0  0  0  0
    1.6848   -0.2391    8.2473 H   0  0  0  0  0  0  0  0  0  0  0  0
   -0.2694    1.2572    8.1760 H   0  0  0  0  0  0  0  0  0  0  0  0
   -1.1109    2.0811    6.0136 H   0  0  0  0  0  0  0  0  0  0  0  0
    0.0064    1.4147    3.9229 H   0  0  0  0  0  0  0  0  0  0  0  0
  1  2  1  0  0  0  0
  1 20  1  0  0  0  0
  1 21  1  0  0  0  0
  1 22  1  0  0  0  0
  2  3  1  0  0  0  0
  2 23  1  0  0  0  0
  2 24  1  0  0  0  0
  3  4  1  0  0  0  0
  4  5  2  0  0  0  0
  4  6  1  0  0  0  0
  6 10  1  0  0  0  0
  6  7  2  0  0  0  0
  7  8  1  0  0  0  0
  7 25  1  0  0  0  0
  8  9  2  0  0  0  0
  9 10  1  0  0  0  0
  9 26  1  0  0  0  0
 10 11  1  0  0  0  0
 11 12  1  6  0  0  0
 11 13  1  0  0  0  0
 11 14  1  0  0  0  0
 13 27  1  0  0  0  0
 13 28  1  0  0  0  0
 13 29  1  0  0  0  0
 14 19  2  0  0  0  0
 14 15  1  0  0  0  0
 15 16  2  0  0  0  0
 15 30  1  0  0  0  0
 16 17  1  0  0  0  0
 16 31  1  0  0  0  0
 17 18  2  0  0  0  0
 17 32  1  0  0  0  0
 18 19  1  0  0  0  0
 18 33  1  0  0  0  0
 19 34  1  0  0  0  0
M  END
$$$$
