ZINC00895034
 OpenBabel08292219463D

 14 13  0  0  1  0  0  0  0  0999 V2000
   -0.0187    1.5258    0.0104 C   0  0  0  0  0  0  0  0  0  0  0  0
    0.0021   -0.0041    0.0020 C   0  0  1  0  0  0  0  0  0  0  0  0
    0.6044   -0.3639    0.8362 H   0  0  0  0  0  0  0  0  0  0  0  0
   -1.4051   -0.5263    0.1365 C   0  0  0  0  0  0  0  0  0  0  0  0
   -2.0764   -0.7331   -0.8600 O   0  0  0  0  0  0  0  0  0  0  0  0
   -1.8723   -0.7419    1.2418 O   0  0  0  0  0  1  0  0  0  0  0  0
    0.5820   -0.4790   -1.2614 N   0  3  0  0  0  0  0  0  0  0  0  0
    1.3220    2.0204    0.0003 O   0  0  0  0  0  0  0  0  0  0  0  0
   -0.5459    1.8868   -0.8726 H   0  0  0  0  0  0  0  0  0  0  0  0
   -0.5289    1.8773    0.9072 H   0  0  0  0  0  0  0  0  0  0  0  0
    1.5242   -0.1293   -1.3514 H   0  0  0  0  0  0  0  0  0  0  0  0
    0.5957   -1.4879   -1.2669 H   0  0  0  0  0  0  0  0  0  0  0  0
    1.3852    2.9853    0.0049 H   0  0  0  0  0  0  0  0  0  0  0  0
    0.0244   -0.1459   -2.0336 H   0  0  0  0  0  0  0  0  0  0  0  0
  1  2  1  0  0  0  0
  1  8  1  0  0  0  0
  1  9  1  0  0  0  0
  1 10  1  0  0  0  0
  2  3  1  1  0  0  0
  2  4  1  0  0  0  0
  2  7  1  0  0  0  0
  4  5  2  0  0  0  0
  4  6  1  0  0  0  0
  7 11  1  0  0  0  0
  7 12  1  0  0  0  0
  7 14  1  0  0  0  0
  8 13  1  0  0  0  0
M  CHG  1   7   1
M  END
$$$$
