ZINC04097308
 OpenBabel08292219463D

 64 68  0  0  1  0  0  0  0  0999 V2000
    0.2651    2.3853   -0.7608 C   0  0  0  0  0  0  0  0  0  0  0  0
    0.1061    0.8832   -0.5171 C   0  0  2  0  0  0  0  0  0  0  0  0
   -1.3758    0.6019   -0.4647 C   0  0  0  0  0  0  0  0  0  0  0  0
   -1.7070   -0.5959    0.4250 C   0  0  0  0  0  0  0  0  0  0  0  0
   -1.1125   -0.3272    1.7946 C   0  0  0  0  0  0  0  0  0  0  0  0
   -1.7738   -0.4098    2.8085 O   0  0  0  0  0  0  0  0  0  0  0  0
    0.3104    0.0385    1.8225 C   0  0  0  0  0  0  0  0  0  0  0  0
    0.8639    0.5648    0.7343 C   0  0  0  0  0  0  0  0  0  0  0  0
    2.3574    0.8438    0.7346 C   0  0  2  0  0  0  0  0  0  0  0  0
    2.5329    1.9172    0.6642 H   0  0  0  0  0  0  0  0  0  0  0  0
    2.9627    0.1371   -0.4837 C   0  0  0  0  0  0  0  0  0  0  0  0
    2.2468    0.5861   -1.7576 C   0  0  2  0  0  0  0  0  0  0  0  0
    2.3224    1.6688   -1.8583 H   0  0  0  0  0  0  0  0  0  0  0  0
    0.7662    0.1740   -1.7006 C   0  0  2  0  0  0  0  0  0  0  0  0
    0.6989   -0.9043   -1.5559 H   0  0  0  0  0  0  0  0  0  0  0  0
    0.0323    0.5374   -2.9876 C   0  0  2  0  0  0  0  0  0  0  0  0
   -0.9852    0.1496   -2.9387 H   0  0  0  0  0  0  0  0  0  0  0  0
    0.7338   -0.0485   -4.2233 C   0  0  0  0  0  0  0  0  0  0  0  0
    2.1564    0.4774   -4.2242 C   0  0  1  0  0  0  0  0  0  0  0  0
    2.8715   -0.0842   -2.9678 C   0  0  1  0  0  0  0  0  0  0  0  0
    2.7356   -1.1644   -2.9149 H   0  0  0  0  0  0  0  0  0  0  0  0
    4.3362    0.2723   -3.2428 C   0  0  0  0  0  0  0  0  0  0  0  0
    4.4973   -0.0399   -4.7556 C   0  0  2  0  0  0  0  0  0  0  0  0
    5.2019    0.6325   -5.2449 H   0  0  0  0  0  0  0  0  0  0  0  0
    3.0501    0.0174   -5.3692 C   0  0  1  0  0  0  0  0  0  0  0  0
    2.7219   -1.3340   -5.7440 O   0  0  0  0  0  0  0  0  0  0  0  0
    3.9989   -1.9759   -5.9481 C   0  0  0  0  0  0  0  0  0  0  0  0
    4.8785   -1.4249   -4.8856 O   0  0  0  0  0  0  0  0  0  0  0  0
    3.8556   -3.4953   -5.8403 C   0  0  0  0  0  0  0  0  0  0  0  0
    4.5791   -1.5887   -7.3098 C   0  0  0  0  0  0  0  0  0  0  0  0
    2.9988    0.9692   -6.5365 C   0  0  0  0  0  0  0  0  0  0  0  0
    3.8047    1.8646   -6.6214 O   0  0  0  0  0  0  0  0  0  0  0  0
    1.9416    0.8038   -7.5977 C   0  0  0  0  0  0  0  0  0  0  0  0
    2.1720    1.7427   -8.6500 O   0  0  0  0  0  0  0  0  0  0  0  0
    2.1433    2.0060   -4.1595 C   0  0  0  0  0  0  0  0  0  0  0  0
   -0.0164    1.9602   -3.1111 O   0  0  0  0  0  0  0  0  0  0  0  0
    2.9328    0.3451    1.9082 F   0  0  0  0  0  0  0  0  0  0  0  0
    1.2606    2.5857   -1.1569 H   0  0  0  0  0  0  0  0  0  0  0  0
   -0.4852    2.7185   -1.4779 H   0  0  0  0  0  0  0  0  0  0  0  0
    0.1331    2.9218    0.1788 H   0  0  0  0  0  0  0  0  0  0  0  0
   -1.8892    1.4822   -0.0779 H   0  0  0  0  0  0  0  0  0  0  0  0
   -1.7335    0.4016   -1.4747 H   0  0  0  0  0  0  0  0  0  0  0  0
   -2.7881   -0.7084    0.5066 H   0  0  0  0  0  0  0  0  0  0  0  0
   -1.2708   -1.5016    0.0036 H   0  0  0  0  0  0  0  0  0  0  0  0
    0.9012   -0.1296    2.7109 H   0  0  0  0  0  0  0  0  0  0  0  0
    4.0215    0.3857   -0.5570 H   0  0  0  0  0  0  0  0  0  0  0  0
    2.8531   -0.9411   -0.3679 H   0  0  0  0  0  0  0  0  0  0  0  0
    0.7406   -1.1369   -4.1650 H   0  0  0  0  0  0  0  0  0  0  0  0
    0.2190    0.2722   -5.1290 H   0  0  0  0  0  0  0  0  0  0  0  0
    4.5188    1.3288   -3.0462 H   0  0  0  0  0  0  0  0  0  0  0  0
    5.0027   -0.3520   -2.6478 H   0  0  0  0  0  0  0  0  0  0  0  0
    3.1557   -3.8489   -6.5974 H   0  0  0  0  0  0  0  0  0  0  0  0
    4.8273   -3.9639   -5.9966 H   0  0  0  0  0  0  0  0  0  0  0  0
    3.4818   -3.7557   -4.8500 H   0  0  0  0  0  0  0  0  0  0  0  0
    4.6626   -0.5038   -7.3740 H   0  0  0  0  0  0  0  0  0  0  0  0
    5.5661   -2.0366   -7.4248 H   0  0  0  0  0  0  0  0  0  0  0  0
    3.9218   -1.9499   -8.1008 H   0  0  0  0  0  0  0  0  0  0  0  0
    1.9845   -0.2089   -7.9985 H   0  0  0  0  0  0  0  0  0  0  0  0
    0.9584    0.9807   -7.1618 H   0  0  0  0  0  0  0  0  0  0  0  0
    1.5278    1.6930   -9.3695 H   0  0  0  0  0  0  0  0  0  0  0  0
    1.8086    2.3250   -3.1724 H   0  0  0  0  0  0  0  0  0  0  0  0
    3.1483    2.3860   -4.3428 H   0  0  0  0  0  0  0  0  0  0  0  0
    1.4636    2.3959   -4.9172 H   0  0  0  0  0  0  0  0  0  0  0  0
   -0.4690    2.2706   -3.9072 H   0  0  0  0  0  0  0  0  0  0  0  0
  1 38  1  0  0  0  0
  1 39  1  0  0  0  0
  1 40  1  0  0  0  0
  2  1  1  6  0  0  0
  2  8  1  0  0  0  0
  2 14  1  0  0  0  0
  2  3  1  0  0  0  0
  3  4  1  0  0  0  0
  3 41  1  0  0  0  0
  3 42  1  0  0  0  0
  4  5  1  0  0  0  0
  4 43  1  0  0  0  0
  4 44  1  0  0  0  0
  5  6  2  0  0  0  0
  5  7  1  0  0  0  0
  7  8  2  0  0  0  0
  7 45  1  0  0  0  0
  8  9  1  0  0  0  0
  9 10  1  6  0  0  0
  9 11  1  0  0  0  0
  9 37  1  0  0  0  0
 11 12  1  0  0  0  0
 11 46  1  0  0  0  0
 11 47  1  0  0  0  0
 12 13  1  6  0  0  0
 12 20  1  0  0  0  0
 12 14  1  0  0  0  0
 14 15  1  1  0  0  0
 14 16  1  0  0  0  0
 16 17  1  1  0  0  0
 16 18  1  0  0  0  0
 16 36  1  0  0  0  0
 18 19  1  0  0  0  0
 18 48  1  0  0  0  0
 18 49  1  0  0  0  0
 19 25  1  0  0  0  0
 19 20  1  0  0  0  0
 19 35  1  1  0  0  0
 20 21  1  1  0  0  0
 20 22  1  0  0  0  0
 22 23  1  0  0  0  0
 22 50  1  0  0  0  0
 22 51  1  0  0  0  0
 23 24  1  6  0  0  0
 23 28  1  0  0  0  0
 23 25  1  0  0  0  0
 25 26  1  0  0  0  0
 25 31  1  6  0  0  0
 26 27  1  0  0  0  0
 27 28  1  0  0  0  0
 27 29  1  0  0  0  0
 27 30  1  0  0  0  0
 29 52  1  0  0  0  0
 29 53  1  0  0  0  0
 29 54  1  0  0  0  0
 30 55  1  0  0  0  0
 30 56  1  0  0  0  0
 30 57  1  0  0  0  0
 31 32  2  0  0  0  0
 31 33  1  0  0  0  0
 33 34  1  0  0  0  0
 33 58  1  0  0  0  0
 33 59  1  0  0  0  0
 34 60  1  0  0  0  0
 35 61  1  0  0  0  0
 35 62  1  0  0  0  0
 35 63  1  0  0  0  0
 36 64  1  0  0  0  0
M  END
$$$$
