ZINC00607790
 OpenBabel08292219463D

 54 56  0  0  1  0  0  0  0  0999 V2000
    0.6295    1.4619    0.2731 C   0  0  0  0  0  0  0  0  0  0  0  0
    0.5247   -0.0399    0.2051 C   0  0  0  0  0  0  0  0  0  0  0  0
    1.5281   -0.7140    0.1069 O   0  0  0  0  0  0  0  0  0  0  0  0
   -0.6841   -0.6340    0.2535 N   0  0  0  0  0  0  0  0  0  0  0  0
   -0.7860   -2.0939    0.1874 C   0  0  2  0  0  0  0  0  0  0  0  0
   -0.0082   -2.4744   -0.4747 H   0  0  0  0  0  0  0  0  0  0  0  0
   -2.1418   -2.4694   -0.3764 C   0  0  0  0  0  0  0  0  0  0  0  0
   -2.4456   -3.9458   -0.1388 C   0  0  0  0  0  0  0  0  0  0  0  0
   -1.2279   -4.7732   -0.4608 C   0  0  0  0  0  0  0  0  0  0  0  0
   -1.1694   -5.4926   -1.6363 C   0  0  0  0  0  0  0  0  0  0  0  0
   -0.0501   -6.2630   -1.9246 C   0  0  0  0  0  0  0  0  0  0  0  0
    1.0157   -6.3154   -1.0328 C   0  0  0  0  0  0  0  0  0  0  0  0
    0.9652   -5.5902    0.1505 C   0  0  0  0  0  0  0  0  0  0  0  0
   -0.1623   -4.8125    0.4318 C   0  0  0  0  0  0  0  0  0  0  0  0
   -0.2114   -4.0093    1.6897 C   0  0  0  0  0  0  0  0  0  0  0  0
   -0.5773   -2.6668    1.5746 C   0  0  0  0  0  0  0  0  0  0  0  0
   -0.7657   -1.8221    2.6030 C   0  0  0  0  0  0  0  0  0  0  0  0
   -0.6472   -1.9646    3.9566 C   0  0  0  0  0  0  0  0  0  0  0  0
   -0.9758   -0.9930    4.6243 O   0  0  0  0  0  0  0  0  0  0  0  0
   -0.2026   -3.0691    4.6752 C   0  0  0  0  0  0  0  0  0  0  0  0
    0.1355   -4.2735    4.1415 C   0  0  0  0  0  0  0  0  0  0  0  0
    0.1135   -4.6617    2.8510 C   0  0  0  0  0  0  0  0  0  0  0  0
   -0.0968   -2.9338    6.0197 O   0  0  0  0  0  0  0  0  0  0  0  0
    0.3606   -4.0723    6.7522 C   0  0  0  0  0  0  0  0  0  0  0  0
    2.0020   -5.6367    1.0277 O   0  0  0  0  0  0  0  0  0  0  0  0
    2.9735   -4.5924    0.9398 C   0  0  0  0  0  0  0  0  0  0  0  0
    2.1068   -7.0769   -1.3191 O   0  0  0  0  0  0  0  0  0  0  0  0
    3.1096   -6.4874   -2.1491 C   0  0  0  0  0  0  0  0  0  0  0  0
    0.0035   -6.9698   -3.0844 O   0  0  0  0  0  0  0  0  0  0  0  0
   -1.1246   -6.8727   -3.9561 C   0  0  0  0  0  0  0  0  0  0  0  0
    1.6778    1.7557    0.2201 H   0  0  0  0  0  0  0  0  0  0  0  0
    0.0861    1.9022   -0.5629 H   0  0  0  0  0  0  0  0  0  0  0  0
    0.2004    1.8140    1.2112 H   0  0  0  0  0  0  0  0  0  0  0  0
   -1.4866   -0.0948    0.3320 H   0  0  0  0  0  0  0  0  0  0  0  0
   -2.9096   -1.8642    0.1056 H   0  0  0  0  0  0  0  0  0  0  0  0
   -2.1511   -2.2703   -1.4480 H   0  0  0  0  0  0  0  0  0  0  0  0
   -2.7205   -4.0961    0.9053 H   0  0  0  0  0  0  0  0  0  0  0  0
   -3.2727   -4.2534   -0.7787 H   0  0  0  0  0  0  0  0  0  0  0  0
   -1.9943   -5.4571   -2.3325 H   0  0  0  0  0  0  0  0  0  0  0  0
   -1.0717   -0.8322    2.2982 H   0  0  0  0  0  0  0  0  0  0  0  0
    0.4697   -5.0196    4.8471 H   0  0  0  0  0  0  0  0  0  0  0  0
    0.4050   -5.6909    2.7024 H   0  0  0  0  0  0  0  0  0  0  0  0
    1.3562   -4.3507    6.4067 H   0  0  0  0  0  0  0  0  0  0  0  0
    0.3993   -3.8295    7.8141 H   0  0  0  0  0  0  0  0  0  0  0  0
   -0.3247   -4.9051    6.5946 H   0  0  0  0  0  0  0  0  0  0  0  0
    2.5092   -3.6414    1.2007 H   0  0  0  0  0  0  0  0  0  0  0  0
    3.7918   -4.7985    1.6297 H   0  0  0  0  0  0  0  0  0  0  0  0
    3.3604   -4.5408   -0.0778 H   0  0  0  0  0  0  0  0  0  0  0  0
    3.4305   -5.5407   -1.7146 H   0  0  0  0  0  0  0  0  0  0  0  0
    3.9630   -7.1615   -2.2223 H   0  0  0  0  0  0  0  0  0  0  0  0
    2.7001   -6.3104   -3.1437 H   0  0  0  0  0  0  0  0  0  0  0  0
   -1.2662   -5.8334   -4.2527 H   0  0  0  0  0  0  0  0  0  0  0  0
   -0.9525   -7.4833   -4.8424 H   0  0  0  0  0  0  0  0  0  0  0  0
   -2.0157   -7.2272   -3.4380 H   0  0  0  0  0  0  0  0  0  0  0  0
  1  2  1  0  0  0  0
  1 31  1  0  0  0  0
  1 32  1  0  0  0  0
  1 33  1  0  0  0  0
  2  3  2  0  0  0  0
  2  4  1  0  0  0  0
  4  5  1  0  0  0  0
  4 34  1  0  0  0  0
  5  6  1  6  0  0  0
  5 16  1  0  0  0  0
  5  7  1  0  0  0  0
  7  8  1  0  0  0  0
  7 35  1  0  0  0  0
  7 36  1  0  0  0  0
  8  9  1  0  0  0  0
  8 37  1  0  0  0  0
  8 38  1  0  0  0  0
  9 14  2  0  0  0  0
  9 10  1  0  0  0  0
 10 11  2  0  0  0  0
 10 39  1  0  0  0  0
 11 12  1  0  0  0  0
 11 29  1  0  0  0  0
 12 13  2  0  0  0  0
 12 27  1  0  0  0  0
 13 14  1  0  0  0  0
 13 25  1  0  0  0  0
 14 15  1  0  0  0  0
 15 22  2  0  0  0  0
 15 16  1  0  0  0  0
 16 17  2  0  0  0  0
 17 18  1  0  0  0  0
 17 40  1  0  0  0  0
 18 19  2  0  0  0  0
 18 20  1  0  0  0  0
 20 21  2  0  0  0  0
 20 23  1  0  0  0  0
 21 22  1  0  0  0  0
 21 41  1  0  0  0  0
 22 42  1  0  0  0  0
 23 24  1  0  0  0  0
 24 43  1  0  0  0  0
 24 44  1  0  0  0  0
 24 45  1  0  0  0  0
 25 26  1  0  0  0  0
 26 46  1  0  0  0  0
 26 47  1  0  0  0  0
 26 48  1  0  0  0  0
 27 28  1  0  0  0  0
 28 49  1  0  0  0  0
 28 50  1  0  0  0  0
 28 51  1  0  0  0  0
 29 30  1  0  0  0  0
 30 52  1  0  0  0  0
 30 53  1  0  0  0  0
 30 54  1  0  0  0  0
M  END
$$$$
