ZINC03977945
 OpenBabel08292219463D

 57 60  0  0  1  0  0  0  0  0999 V2000
    0.5790    0.6138   -0.1010 C   0  0  0  0  0  0  0  0  0  0  0  0
    0.6282   -0.9113    0.0104 C   0  0  1  0  0  0  0  0  0  0  0  0
   -0.3865   -1.3076    0.0503 H   0  0  0  0  0  0  0  0  0  0  0  0
    1.3576   -1.4908   -1.2035 C   0  0  0  0  0  0  0  0  0  0  0  0
    1.5104   -3.0039   -1.0221 C   0  0  1  0  0  0  0  0  0  0  0  0
    0.5346   -3.4587   -0.8518 H   0  0  0  0  0  0  0  0  0  0  0  0
    2.1542   -3.6054   -2.2581 C   0  0  2  0  0  0  0  0  0  0  0  0
    3.1539   -3.1956   -2.4024 H   0  0  0  0  0  0  0  0  0  0  0  0
    1.3401   -3.4961   -3.5524 C   0  0  0  0  0  0  0  0  0  0  0  0
    1.9136   -4.6475   -4.4226 C   0  0  0  0  0  0  0  0  0  0  0  0
    2.5194   -5.6791   -3.4386 C   0  0  1  0  0  0  0  0  0  0  0  0
    3.5979   -5.7483   -3.5805 H   0  0  0  0  0  0  0  0  0  0  0  0
    2.2232   -5.1404   -2.0370 C   0  0  1  0  0  0  0  0  0  0  0  0
    3.2633   -5.3904   -0.9618 C   0  0  0  0  0  0  0  0  0  0  0  0
    2.7317   -4.7619    0.3361 C   0  0  1  0  0  0  0  0  0  0  0  0
    3.4733   -4.8931    1.1240 H   0  0  0  0  0  0  0  0  0  0  0  0
    2.4313   -3.2732    0.1768 C   0  0  2  0  0  0  0  0  0  0  0  0
    3.3726   -2.7443    0.0273 H   0  0  0  0  0  0  0  0  0  0  0  0
    1.7702   -2.7397    1.4541 C   0  0  2  0  0  0  0  0  0  0  0  0
    1.3781   -1.3055    1.2697 C   0  0  0  0  0  0  0  0  0  0  0  0
    1.6447   -0.3479    2.1577 C   0  0  0  0  0  0  0  0  0  0  0  0
    2.3526   -0.6760    3.3999 C   0  0  0  0  0  0  0  0  0  0  0  0
    2.9446    0.1680    4.0396 O   0  0  0  0  0  0  0  0  0  0  0  0
    2.3050   -2.1253    3.8424 C   0  0  0  0  0  0  0  0  0  0  0  0
    2.6952   -2.9836    2.6332 C   0  0  0  0  0  0  0  0  0  0  0  0
    0.4852   -3.5366    1.6879 C   0  0  0  0  0  0  0  0  0  0  0  0
    1.5259   -5.4277    0.7162 O   0  0  0  0  0  0  0  0  0  0  0  0
    0.8603   -5.6596   -1.5748 C   0  0  0  0  0  0  0  0  0  0  0  0
    1.8797   -7.0290   -3.6380 C   0  0  0  0  0  0  0  0  0  0  0  0
    0.7741   -7.1084   -4.1173 O   0  0  0  0  0  0  0  0  0  0  0  0
    2.6197   -8.2798   -3.2392 C   0  0  0  0  0  0  0  0  0  0  0  0
    1.5943    1.0082   -0.1408 H   0  0  0  0  0  0  0  0  0  0  0  0
    0.0442    0.8948   -1.0083 H   0  0  0  0  0  0  0  0  0  0  0  0
    0.0632    1.0250    0.7668 H   0  0  0  0  0  0  0  0  0  0  0  0
    0.7808   -1.2885   -2.1060 H   0  0  0  0  0  0  0  0  0  0  0  0
    2.3430   -1.0328   -1.2893 H   0  0  0  0  0  0  0  0  0  0  0  0
    0.2796   -3.6531   -3.3553 H   0  0  0  0  0  0  0  0  0  0  0  0
    1.5056   -2.5312   -4.0317 H   0  0  0  0  0  0  0  0  0  0  0  0
    1.1161   -5.1093   -5.0047 H   0  0  0  0  0  0  0  0  0  0  0  0
    2.6883   -4.2643   -5.0866 H   0  0  0  0  0  0  0  0  0  0  0  0
    3.4053   -6.4624   -0.8244 H   0  0  0  0  0  0  0  0  0  0  0  0
    4.2071   -4.9225   -1.2418 H   0  0  0  0  0  0  0  0  0  0  0  0
    1.3398    0.6696    1.9625 H   0  0  0  0  0  0  0  0  0  0  0  0
    3.0134   -2.2882    4.6546 H   0  0  0  0  0  0  0  0  0  0  0  0
    1.2974   -2.3792    4.1718 H   0  0  0  0  0  0  0  0  0  0  0  0
    2.6424   -4.0353    2.9148 H   0  0  0  0  0  0  0  0  0  0  0  0
    3.7175   -2.7472    2.3377 H   0  0  0  0  0  0  0  0  0  0  0  0
    0.7321   -4.5043    2.1247 H   0  0  0  0  0  0  0  0  0  0  0  0
   -0.1650   -2.9863    2.3679 H   0  0  0  0  0  0  0  0  0  0  0  0
   -0.0270   -3.6871    0.7375 H   0  0  0  0  0  0  0  0  0  0  0  0
    1.6335   -6.3753    0.8765 H   0  0  0  0  0  0  0  0  0  0  0  0
    0.1638   -5.6484   -2.4132 H   0  0  0  0  0  0  0  0  0  0  0  0
    0.9664   -6.6791   -1.2042 H   0  0  0  0  0  0  0  0  0  0  0  0
    0.4795   -5.0211   -0.7777 H   0  0  0  0  0  0  0  0  0  0  0  0
    3.5931   -8.0109   -2.8290 H   0  0  0  0  0  0  0  0  0  0  0  0
    2.0441   -8.8179   -2.4860 H   0  0  0  0  0  0  0  0  0  0  0  0
    2.7570   -8.9152   -4.1141 H   0  0  0  0  0  0  0  0  0  0  0  0
  1  2  1  0  0  0  0
  1 32  1  0  0  0  0
  1 33  1  0  0  0  0
  1 34  1  0  0  0  0
  2  3  1  1  0  0  0
  2 20  1  0  0  0  0
  2  4  1  0  0  0  0
  4  5  1  0  0  0  0
  4 35  1  0  0  0  0
  4 36  1  0  0  0  0
  5  6  1  1  0  0  0
  5 17  1  0  0  0  0
  5  7  1  0  0  0  0
  7  8  1  6  0  0  0
  7 13  1  0  0  0  0
  7  9  1  0  0  0  0
  9 10  1  0  0  0  0
  9 37  1  0  0  0  0
  9 38  1  0  0  0  0
 10 11  1  0  0  0  0
 10 39  1  0  0  0  0
 10 40  1  0  0  0  0
 11 12  1  6  0  0  0
 11 13  1  0  0  0  0
 11 29  1  0  0  0  0
 13 14  1  0  0  0  0
 13 28  1  1  0  0  0
 14 15  1  0  0  0  0
 14 41  1  0  0  0  0
 14 42  1  0  0  0  0
 15 16  1  1  0  0  0
 15 17  1  0  0  0  0
 15 27  1  0  0  0  0
 17 18  1  6  0  0  0
 17 19  1  0  0  0  0
 19 25  1  0  0  0  0
 19 20  1  0  0  0  0
 19 26  1  1  0  0  0
 20 21  2  0  0  0  0
 21 22  1  0  0  0  0
 21 43  1  0  0  0  0
 22 23  2  0  0  0  0
 22 24  1  0  0  0  0
 24 25  1  0  0  0  0
 24 44  1  0  0  0  0
 24 45  1  0  0  0  0
 25 46  1  0  0  0  0
 25 47  1  0  0  0  0
 26 48  1  0  0  0  0
 26 49  1  0  0  0  0
 26 50  1  0  0  0  0
 27 51  1  0  0  0  0
 28 52  1  0  0  0  0
 28 53  1  0  0  0  0
 28 54  1  0  0  0  0
 29 30  2  0  0  0  0
 29 31  1  0  0  0  0
 31 55  1  0  0  0  0
 31 56  1  0  0  0  0
 31 57  1  0  0  0  0
M  END
$$$$
