ZINC04212851
 OpenBabel08292219463D

 62 66  0  0  1  0  0  0  0  0999 V2000
   -0.9087    1.6708   -0.1349 C   0  0  0  0  0  0  0  0  0  0  0  0
   -1.1011    0.1531   -0.1220 C   0  0  2  0  0  0  0  0  0  0  0  0
   -2.4157   -0.1923    0.5516 C   0  0  0  0  0  0  0  0  0  0  0  0
   -2.4032    0.4678    1.9394 C   0  0  1  0  0  0  0  0  0  0  0  0
   -3.3228    0.2093    2.4645 H   0  0  0  0  0  0  0  0  0  0  0  0
   -1.2091    0.0078    2.7705 C   0  0  1  0  0  0  0  0  0  0  0  0
   -1.3095   -1.0563    2.9843 H   0  0  0  0  0  0  0  0  0  0  0  0
    0.1190    0.2531    2.0371 C   0  0  2  0  0  0  0  0  0  0  0  0
    0.2527    1.3212    1.8655 H   0  0  0  0  0  0  0  0  0  0  0  0
    0.0293   -0.5133    0.7069 C   0  0  2  0  0  0  0  0  0  0  0  0
   -0.1942   -1.5664    0.8780 H   0  0  0  0  0  0  0  0  0  0  0  0
    1.2344   -0.3528   -0.2257 C   0  0  0  0  0  0  0  0  0  0  0  0
    0.6436   -0.6812   -1.6242 C   0  0  2  0  0  0  0  0  0  0  0  0
    1.1182   -0.1071   -2.4200 H   0  0  0  0  0  0  0  0  0  0  0  0
   -0.8861   -0.4064   -1.5229 C   0  0  1  0  0  0  0  0  0  0  0  0
   -1.4973   -1.7056   -1.6382 O   0  0  0  0  0  0  0  0  0  0  0  0
   -0.5350   -2.4977   -2.3666 C   0  0  0  0  0  0  0  0  0  0  0  0
    0.7564   -2.1042   -1.8306 O   0  0  0  0  0  0  0  0  0  0  0  0
   -0.6020   -2.1771   -3.8612 C   0  0  0  0  0  0  0  0  0  0  0  0
   -0.7813   -3.9888   -2.1280 C   0  0  0  0  0  0  0  0  0  0  0  0
   -1.3581    0.5510   -2.5868 C   0  0  0  0  0  0  0  0  0  0  0  0
   -0.5836    1.3356   -3.0796 O   0  0  0  0  0  0  0  0  0  0  0  0
   -2.7966    0.5292   -3.0355 C   0  0  0  0  0  0  0  0  0  0  0  0
   -3.0246    1.5983   -3.9559 O   0  0  0  0  0  0  0  0  0  0  0  0
    1.2785   -0.2835    2.8789 C   0  0  0  0  0  0  0  0  0  0  0  0
    1.3649    0.4960    4.1949 C   0  0  0  0  0  0  0  0  0  0  0  0
    0.0146    0.4114    4.8817 C   0  0  0  0  0  0  0  0  0  0  0  0
   -0.0394    0.0144    6.1453 C   0  0  0  0  0  0  0  0  0  0  0  0
   -1.3319   -0.1000    6.8387 C   0  0  0  0  0  0  0  0  0  0  0  0
   -1.3832   -0.4263    8.0098 O   0  0  0  0  0  0  0  0  0  0  0  0
   -2.5622    0.1900    6.0830 C   0  0  0  0  0  0  0  0  0  0  0  0
   -2.4839    0.5909    4.8240 C   0  0  0  0  0  0  0  0  0  0  0  0
   -1.1792    0.7859    4.0891 C   0  0  2  0  0  0  0  0  0  0  0  0
   -1.0537    2.2727    3.7505 C   0  0  0  0  0  0  0  0  0  0  0  0
   -2.3403    1.8865    1.7804 O   0  0  0  0  0  0  0  0  0  0  0  0
   -0.0572    1.9238   -0.7666 H   0  0  0  0  0  0  0  0  0  0  0  0
   -1.8068    2.1476   -0.5275 H   0  0  0  0  0  0  0  0  0  0  0  0
   -0.7250    2.0224    0.8804 H   0  0  0  0  0  0  0  0  0  0  0  0
   -3.2472    0.1958   -0.0365 H   0  0  0  0  0  0  0  0  0  0  0  0
   -2.5064   -1.2735    0.6558 H   0  0  0  0  0  0  0  0  0  0  0  0
    1.6102    0.6699   -0.1968 H   0  0  0  0  0  0  0  0  0  0  0  0
    2.0208   -1.0608    0.0360 H   0  0  0  0  0  0  0  0  0  0  0  0
   -0.2772   -1.1500   -4.0274 H   0  0  0  0  0  0  0  0  0  0  0  0
    0.0504   -2.8576   -4.4084 H   0  0  0  0  0  0  0  0  0  0  0  0
   -1.6270   -2.2954   -4.2125 H   0  0  0  0  0  0  0  0  0  0  0  0
   -1.7842   -4.2500   -2.4656 H   0  0  0  0  0  0  0  0  0  0  0  0
   -0.0473   -4.5719   -2.6843 H   0  0  0  0  0  0  0  0  0  0  0  0
   -0.6878   -4.2068   -1.0641 H   0  0  0  0  0  0  0  0  0  0  0  0
   -3.0107   -0.4219   -3.5231 H   0  0  0  0  0  0  0  0  0  0  0  0
   -3.4489    0.6490   -2.1705 H   0  0  0  0  0  0  0  0  0  0  0  0
   -3.9319    1.6453   -4.2871 H   0  0  0  0  0  0  0  0  0  0  0  0
    1.1130   -1.3393    3.0929 H   0  0  0  0  0  0  0  0  0  0  0  0
    2.2113   -0.1678    2.3269 H   0  0  0  0  0  0  0  0  0  0  0  0
    2.1310    0.0564    4.8336 H   0  0  0  0  0  0  0  0  0  0  0  0
    1.6091    1.5384    3.9901 H   0  0  0  0  0  0  0  0  0  0  0  0
    0.8731   -0.2267    6.6703 H   0  0  0  0  0  0  0  0  0  0  0  0
   -3.5268    0.0753    6.5552 H   0  0  0  0  0  0  0  0  0  0  0  0
   -3.4056    0.7885    4.2969 H   0  0  0  0  0  0  0  0  0  0  0  0
   -2.0271    2.6604    3.4500 H   0  0  0  0  0  0  0  0  0  0  0  0
   -0.7008    2.8164    4.6269 H   0  0  0  0  0  0  0  0  0  0  0  0
   -0.3436    2.4006    2.9335 H   0  0  0  0  0  0  0  0  0  0  0  0
   -3.0843    2.2606    1.2889 H   0  0  0  0  0  0  0  0  0  0  0  0
  1 36  1  0  0  0  0
  1 37  1  0  0  0  0
  1 38  1  0  0  0  0
  2  1  1  6  0  0  0
  2 10  1  0  0  0  0
  2 15  1  0  0  0  0
  2  3  1  0  0  0  0
  3  4  1  0  0  0  0
  3 39  1  0  0  0  0
  3 40  1  0  0  0  0
  4  5  1  1  0  0  0
  4  6  1  0  0  0  0
  4 35  1  0  0  0  0
  6  7  1  1  0  0  0
  6 33  1  0  0  0  0
  6  8  1  0  0  0  0
  8  9  1  6  0  0  0
  8 10  1  0  0  0  0
  8 25  1  0  0  0  0
 10 11  1  1  0  0  0
 10 12  1  0  0  0  0
 12 13  1  0  0  0  0
 12 41  1  0  0  0  0
 12 42  1  0  0  0  0
 13 14  1  6  0  0  0
 13 18  1  0  0  0  0
 13 15  1  0  0  0  0
 15 16  1  0  0  0  0
 15 21  1  6  0  0  0
 16 17  1  0  0  0  0
 17 18  1  0  0  0  0
 17 19  1  0  0  0  0
 17 20  1  0  0  0  0
 19 43  1  0  0  0  0
 19 44  1  0  0  0  0
 19 45  1  0  0  0  0
 20 46  1  0  0  0  0
 20 47  1  0  0  0  0
 20 48  1  0  0  0  0
 21 22  2  0  0  0  0
 21 23  1  0  0  0  0
 23 24  1  0  0  0  0
 23 49  1  0  0  0  0
 23 50  1  0  0  0  0
 24 51  1  0  0  0  0
 25 26  1  0  0  0  0
 25 52  1  0  0  0  0
 25 53  1  0  0  0  0
 26 27  1  0  0  0  0
 26 54  1  0  0  0  0
 26 55  1  0  0  0  0
 27 33  1  0  0  0  0
 27 28  2  0  0  0  0
 28 29  1  0  0  0  0
 28 56  1  0  0  0  0
 29 30  2  0  0  0  0
 29 31  1  0  0  0  0
 31 32  2  0  0  0  0
 31 57  1  0  0  0  0
 32 33  1  0  0  0  0
 32 58  1  0  0  0  0
 33 34  1  6  0  0  0
 34 59  1  0  0  0  0
 34 60  1  0  0  0  0
 34 61  1  0  0  0  0
 35 62  1  0  0  0  0
M  END
$$$$
