ZINC13648755
 OpenBabel08292219463D

 48 52  0  0  1  0  0  0  0  0999 V2000
   -0.6757    1.6073   -0.2628 C   0  0  0  0  0  0  0  0  0  0  0  0
    0.7714    2.1048   -0.0442 C   0  0  2  0  0  0  0  0  0  0  0  0
    0.9686    2.7113    0.8397 H   0  0  0  0  0  0  0  0  0  0  0  0
    1.6833    2.2341   -1.2652 C   0  0  0  0  0  0  0  0  0  0  0  0
    1.6656    0.9096   -0.4232 C   0  0  2  0  0  0  0  0  0  0  0  0
    2.5364    0.6429    0.1759 H   0  0  0  0  0  0  0  0  0  0  0  0
    0.7720   -0.1813   -0.8565 N   0  0  0  0  0  0  0  0  0  0  0  0
   -0.5259    0.0669   -0.1874 C   0  0  2  0  0  0  0  0  0  0  0  0
   -0.4936   -0.2660    0.8500 H   0  0  0  0  0  0  0  0  0  0  0  0
   -1.6202   -0.5975   -0.9138 C   0  0  0  0  0  0  0  0  0  0  0  0
   -2.4648   -1.1103   -1.4743 N   0  0  0  0  0  0  0  0  0  0  0  0
    1.0744   -1.1957   -1.6908 C   0  0  0  0  0  0  0  0  0  0  0  0
    2.1437   -1.2121   -2.2629 O   0  0  0  0  0  0  0  0  0  0  0  0
    0.0840   -2.3097   -1.9126 C   0  0  2  0  0  0  0  0  0  0  0  0
   -0.9209   -1.8935   -1.9840 H   0  0  0  0  0  0  0  0  0  0  0  0
    0.1479   -3.2900   -0.7397 C   0  0  1  0  0  0  0  0  0  0  0  0
    1.5327   -3.9387   -0.6921 C   0  0  0  0  0  0  0  0  0  0  0  0
    1.5966   -4.9191    0.4808 C   0  0  1  0  0  0  0  0  0  0  0  0
    2.5832   -5.3813    0.5148 H   0  0  0  0  0  0  0  0  0  0  0  0
    1.3403   -4.1672    1.7885 C   0  0  0  0  0  0  0  0  0  0  0  0
   -0.0445   -3.5185    1.7408 C   0  0  1  0  0  0  0  0  0  0  0  0
   -0.2270   -2.9829    2.6724 H   0  0  0  0  0  0  0  0  0  0  0  0
   -0.1084   -2.5381    0.5679 C   0  0  0  0  0  0  0  0  0  0  0  0
   -1.1092   -4.6020    1.5585 C   0  0  0  0  0  0  0  0  0  0  0  0
   -0.8530   -5.3539    0.2508 C   0  0  2  0  0  0  0  0  0  0  0  0
    0.5318   -6.0026    0.2985 C   0  0  0  0  0  0  0  0  0  0  0  0
   -0.9169   -4.3735   -0.9221 C   0  0  0  0  0  0  0  0  0  0  0  0
   -1.8475   -6.3658    0.0805 O   0  0  0  0  0  0  0  0  0  0  0  0
    0.4115   -3.0151   -3.1588 N   0  0  0  0  0  0  0  0  0  0  0  0
   -1.3322    1.9703    0.5280 H   0  0  0  0  0  0  0  0  0  0  0  0
   -1.0446    1.9116   -1.2423 H   0  0  0  0  0  0  0  0  0  0  0  0
    1.2112    2.2307   -2.2476 H   0  0  0  0  0  0  0  0  0  0  0  0
    2.5639    2.8693   -1.1697 H   0  0  0  0  0  0  0  0  0  0  0  0
    1.7153   -4.4744   -1.6237 H   0  0  0  0  0  0  0  0  0  0  0  0
    2.2913   -3.1668   -0.5622 H   0  0  0  0  0  0  0  0  0  0  0  0
    1.3859   -4.8657    2.6241 H   0  0  0  0  0  0  0  0  0  0  0  0
    2.0989   -3.3953    1.9184 H   0  0  0  0  0  0  0  0  0  0  0  0
    0.6502   -1.7662    0.6979 H   0  0  0  0  0  0  0  0  0  0  0  0
   -1.0949   -2.0760    0.5340 H   0  0  0  0  0  0  0  0  0  0  0  0
   -1.0637   -5.3004    2.3941 H   0  0  0  0  0  0  0  0  0  0  0  0
   -2.0958   -4.1398    1.5245 H   0  0  0  0  0  0  0  0  0  0  0  0
    0.7144   -6.5382   -0.6331 H   0  0  0  0  0  0  0  0  0  0  0  0
    0.5773   -6.7010    1.1341 H   0  0  0  0  0  0  0  0  0  0  0  0
   -1.9035   -3.9113   -0.9560 H   0  0  0  0  0  0  0  0  0  0  0  0
   -0.7343   -4.9091   -1.8537 H   0  0  0  0  0  0  0  0  0  0  0  0
   -1.8647   -7.0236    0.7891 H   0  0  0  0  0  0  0  0  0  0  0  0
    1.3390   -3.4103   -3.1176 H   0  0  0  0  0  0  0  0  0  0  0  0
   -0.2753   -3.7253   -3.3636 H   0  0  0  0  0  0  0  0  0  0  0  0
  1  8  1  0  0  0  0
  1  2  1  0  0  0  0
  1 30  1  0  0  0  0
  1 31  1  0  0  0  0
  2  3  1  1  0  0  0
  2  5  1  0  0  0  0
  2  4  1  0  0  0  0
  4  5  1  0  0  0  0
  4 32  1  0  0  0  0
  4 33  1  0  0  0  0
  5  6  1  1  0  0  0
  5  7  1  0  0  0  0
  7  8  1  0  0  0  0
  7 12  1  0  0  0  0
  8  9  1  1  0  0  0
  8 10  1  0  0  0  0
 10 11  3  0  0  0  0
 12 13  2  0  0  0  0
 12 14  1  0  0  0  0
 14 15  1  6  0  0  0
 14 29  1  0  0  0  0
 16 14  1  6  0  0  0
 16 23  1  0  0  0  0
 16 27  1  0  0  0  0
 16 17  1  0  0  0  0
 17 18  1  0  0  0  0
 17 34  1  0  0  0  0
 17 35  1  0  0  0  0
 18 19  1  1  0  0  0
 18 26  1  0  0  0  0
 18 20  1  0  0  0  0
 20 21  1  0  0  0  0
 20 36  1  0  0  0  0
 20 37  1  0  0  0  0
 21 22  1  1  0  0  0
 21 23  1  0  0  0  0
 21 24  1  0  0  0  0
 23 38  1  0  0  0  0
 23 39  1  0  0  0  0
 24 25  1  0  0  0  0
 24 40  1  0  0  0  0
 24 41  1  0  0  0  0
 25 26  1  0  0  0  0
 25 27  1  0  0  0  0
 25 28  1  6  0  0  0
 26 42  1  0  0  0  0
 26 43  1  0  0  0  0
 27 44  1  0  0  0  0
 27 45  1  0  0  0  0
 28 46  1  0  0  0  0
 29 47  1  0  0  0  0
 29 48  1  0  0  0  0
M  END
$$$$
