ZINC00000941
 OpenBabel08292219463D

 41 42  0  0  0  0  0  0  0  0999 V2000
   -0.0187    1.5258    0.0104 C   0  0  0  0  0  0  0  0  0  0  0  0
    0.0021   -0.0041    0.0020 C   0  0  0  0  0  0  0  0  0  0  0  0
    0.7421   -0.5109    1.2415 C   0  0  0  0  0  0  0  0  0  0  0  0
   -1.3789   -0.5136    0.0125 C   0  0  0  0  0  0  0  0  0  0  0  0
   -2.4446   -0.9068    0.0205 N   0  0  0  0  0  0  0  0  0  0  0  0
    0.7074   -0.4901   -1.2379 C   0  0  0  0  0  0  0  0  0  0  0  0
    1.2168    0.4202   -2.1450 C   0  0  0  0  0  0  0  0  0  0  0  0
    1.8638   -0.0256   -3.2823 C   0  0  0  0  0  0  0  0  0  0  0  0
    2.0019   -1.3817   -3.5123 C   0  0  0  0  0  0  0  0  0  0  0  0
    1.4933   -2.2919   -2.6047 C   0  0  0  0  0  0  0  0  0  0  0  0
    0.8501   -1.8461   -1.4653 C   0  0  0  0  0  0  0  0  0  0  0  0
    1.6434   -3.7703   -2.8558 C   0  0  0  0  0  0  0  0  0  0  0  0
    2.3899   -3.9908   -4.1730 C   0  0  0  0  0  0  0  0  0  0  0  0
    2.4335   -4.4046   -1.7094 C   0  0  0  0  0  0  0  0  0  0  0  0
    0.3115   -4.3919   -2.9366 C   0  0  0  0  0  0  0  0  0  0  0  0
   -0.7163   -4.8716   -2.9989 N   0  0  0  0  0  0  0  0  0  0  0  0
    2.4183    0.9668   -4.2717 C   0  0  0  0  0  0  0  0  0  0  0  0
    3.7997    1.2957   -3.9115 N   0  0  0  0  0  0  0  0  0  0  0  0
    4.8829    1.2004   -4.7018 C   0  0  0  0  0  0  0  0  0  0  0  0
    5.9246    1.5872   -4.0113 N   0  0  0  0  0  0  0  0  0  0  0  0
    5.5478    1.9352   -2.7815 C   0  0  0  0  0  0  0  0  0  0  0  0
    4.2546    1.7790   -2.6737 N   0  0  0  0  0  0  0  0  0  0  0  0
    1.0039    1.9031    0.0027 H   0  0  0  0  0  0  0  0  0  0  0  0
   -0.5459    1.8868   -0.8726 H   0  0  0  0  0  0  0  0  0  0  0  0
   -0.5289    1.8773    0.9072 H   0  0  0  0  0  0  0  0  0  0  0  0
    0.2319   -0.1594    2.1383 H   0  0  0  0  0  0  0  0  0  0  0  0
    0.7568   -1.6008    1.2356 H   0  0  0  0  0  0  0  0  0  0  0  0
    1.7647   -0.1336    1.2338 H   0  0  0  0  0  0  0  0  0  0  0  0
    1.1090    1.4797   -1.9653 H   0  0  0  0  0  0  0  0  0  0  0  0
    2.5068   -1.7300   -4.4012 H   0  0  0  0  0  0  0  0  0  0  0  0
    0.4560   -2.5573   -0.7544 H   0  0  0  0  0  0  0  0  0  0  0  0
    3.3761   -3.5305   -4.1131 H   0  0  0  0  0  0  0  0  0  0  0  0
    2.4984   -5.0600   -4.3545 H   0  0  0  0  0  0  0  0  0  0  0  0
    1.8269   -3.5389   -4.9897 H   0  0  0  0  0  0  0  0  0  0  0  0
    1.9017   -4.2476   -0.7710 H   0  0  0  0  0  0  0  0  0  0  0  0
    2.5421   -5.4739   -1.8909 H   0  0  0  0  0  0  0  0  0  0  0  0
    3.4198   -3.9443   -1.6496 H   0  0  0  0  0  0  0  0  0  0  0  0
    2.3969    0.5335   -5.2716 H   0  0  0  0  0  0  0  0  0  0  0  0
    1.8129    1.8730   -4.2553 H   0  0  0  0  0  0  0  0  0  0  0  0
    4.8918    0.8629   -5.7277 H   0  0  0  0  0  0  0  0  0  0  0  0
    6.2040    2.2926   -2.0017 H   0  0  0  0  0  0  0  0  0  0  0  0
  1  2  1  0  0  0  0
  1 23  1  0  0  0  0
  1 24  1  0  0  0  0
  1 25  1  0  0  0  0
  2  3  1  0  0  0  0
  2  4  1  0  0  0  0
  2  6  1  0  0  0  0
  3 26  1  0  0  0  0
  3 27  1  0  0  0  0
  3 28  1  0  0  0  0
  4  5  3  0  0  0  0
  6 11  2  0  0  0  0
  6  7  1  0  0  0  0
  7  8  2  0  0  0  0
  7 29  1  0  0  0  0
  8  9  1  0  0  0  0
  8 17  1  0  0  0  0
  9 10  2  0  0  0  0
  9 30  1  0  0  0  0
 10 11  1  0  0  0  0
 10 12  1  0  0  0  0
 11 31  1  0  0  0  0
 12 13  1  0  0  0  0
 12 14  1  0  0  0  0
 12 15  1  0  0  0  0
 13 32  1  0  0  0  0
 13 33  1  0  0  0  0
 13 34  1  0  0  0  0
 14 35  1  0  0  0  0
 14 36  1  0  0  0  0
 14 37  1  0  0  0  0
 15 16  3  0  0  0  0
 17 18  1  0  0  0  0
 17 38  1  0  0  0  0
 17 39  1  0  0  0  0
 18 22  1  0  0  0  0
 18 19  1  0  0  0  0
 19 20  2  0  0  0  0
 19 40  1  0  0  0  0
 20 21  1  0  0  0  0
 21 22  2  0  0  0  0
 21 41  1  0  0  0  0
M  END
$$$$
