ZINC11680943
 OpenBabel08292219463D

 46 46  0  0  1  0  0  0  0  0999 V2000
   -0.1212    3.0801    6.5527 C   0  0  0  0  0  0  0  0  0  0  0  0
   -0.9358    3.4860    5.3228 C   0  0  1  0  0  0  0  0  0  0  0  0
   -1.9548    3.1120    5.4222 H   0  0  0  0  0  0  0  0  0  0  0  0
   -0.9614    5.0116    5.2088 C   0  0  0  0  0  0  0  0  0  0  0  0
   -1.8634    5.4152    4.0711 C   0  0  0  0  0  0  0  0  0  0  0  0
   -1.3455    5.5653    2.7982 C   0  0  0  0  0  0  0  0  0  0  0  0
   -2.1738    5.9309    1.7537 C   0  0  0  0  0  0  0  0  0  0  0  0
   -3.5180    6.1566    1.9839 C   0  0  0  0  0  0  0  0  0  0  0  0
   -4.0349    6.0116    3.2578 C   0  0  0  0  0  0  0  0  0  0  0  0
   -3.2076    5.6410    4.3013 C   0  0  0  0  0  0  0  0  0  0  0  0
   -0.3217    2.9168    4.1207 N   0  0  0  0  0  0  0  0  0  0  0  0
   -0.6205    1.6580    3.7429 C   0  0  0  0  0  0  0  0  0  0  0  0
   -1.3977    0.9965    4.3982 O   0  0  0  0  0  0  0  0  0  0  0  0
    0.0111    1.0724    2.5063 C   0  0  2  0  0  0  0  0  0  0  0  0
    1.0569    1.3753    2.4543 H   0  0  0  0  0  0  0  0  0  0  0  0
   -0.7288    1.5792    1.2668 C   0  0  0  0  0  0  0  0  0  0  0  0
   -0.0127    1.0858    0.0080 C   0  0  0  0  0  0  0  0  0  0  0  0
   -0.7527    1.5927   -1.2315 C   0  0  0  0  0  0  0  0  0  0  0  0
   -0.0366    1.0992   -2.4903 C   0  0  0  0  0  0  0  0  0  0  0  0
   -0.5781    3.5036    7.4471 H   0  0  0  0  0  0  0  0  0  0  0  0
   -0.1030    1.9933    6.6339 H   0  0  0  0  0  0  0  0  0  0  0  0
    0.8978    3.4541    6.4532 H   0  0  0  0  0  0  0  0  0  0  0  0
   -1.3361    5.4392    6.1388 H   0  0  0  0  0  0  0  0  0  0  0  0
    0.0475    5.3788    5.0206 H   0  0  0  0  0  0  0  0  0  0  0  0
   -0.2944    5.3933    2.6192 H   0  0  0  0  0  0  0  0  0  0  0  0
   -1.7699    6.0445    0.7585 H   0  0  0  0  0  0  0  0  0  0  0  0
   -4.1643    6.4466    1.1687 H   0  0  0  0  0  0  0  0  0  0  0  0
   -5.0850    6.1883    3.4378 H   0  0  0  0  0  0  0  0  0  0  0  0
   -3.6114    5.5281    5.2966 H   0  0  0  0  0  0  0  0  0  0  0  0
    0.2998    3.4458    3.5966 H   0  0  0  0  0  0  0  0  0  0  0  0
   -0.7436    2.6691    1.2728 H   0  0  0  0  0  0  0  0  0  0  0  0
   -1.7514    1.2020    1.2746 H   0  0  0  0  0  0  0  0  0  0  0  0
    0.0021   -0.0041    0.0020 H   0  0  0  0  0  0  0  0  0  0  0  0
    1.0099    1.4631    0.0003 H   0  0  0  0  0  0  0  0  0  0  0  0
   -1.7753    1.2154   -1.2238 H   0  0  0  0  0  0  0  0  0  0  0  0
   -0.7675    2.6825   -1.2255 H   0  0  0  0  0  0  0  0  0  0  0  0
    0.9860    1.4765   -2.4981 H   0  0  0  0  0  0  0  0  0  0  0  0
   -0.0218    0.0093   -2.4963 H   0  0  0  0  0  0  0  0  0  0  0  0
   -0.2932    1.2731   -4.5256 H   0  0  0  0  0  0  0  0  0  0  0  0
   -1.7155    1.3032   -3.6642 H   0  0  0  0  0  0  0  0  0  0  0  0
    0.4632   -0.7571    3.3352 H   0  0  0  0  0  0  0  0  0  0  0  0
   -1.0323   -0.6993    2.6099 H   0  0  0  0  0  0  0  0  0  0  0  0
   -0.7445    1.6108   -3.6771 N   0  3  0  0  0  0  0  0  0  0  0  0
   -0.7182    2.6372   -3.6694 H   0  0  0  0  0  0  0  0  0  0  0  0
   -0.0615   -0.3990    2.5389 N   0  3  0  0  0  0  0  0  0  0  0  0
    0.3434   -0.7761    1.6739 H   0  0  0  0  0  0  0  0  0  0  0  0
  1  2  1  0  0  0  0
  1 20  1  0  0  0  0
  1 21  1  0  0  0  0
  1 22  1  0  0  0  0
  2  3  1  1  0  0  0
  2  4  1  0  0  0  0
  2 11  1  0  0  0  0
  4  5  1  0  0  0  0
  4 23  1  0  0  0  0
  4 24  1  0  0  0  0
  5 10  2  0  0  0  0
  5  6  1  0  0  0  0
  6  7  2  0  0  0  0
  6 25  1  0  0  0  0
  7  8  1  0  0  0  0
  7 26  1  0  0  0  0
  8  9  2  0  0  0  0
  8 27  1  0  0  0  0
  9 10  1  0  0  0  0
  9 28  1  0  0  0  0
 10 29  1  0  0  0  0
 11 12  1  0  0  0  0
 11 30  1  0  0  0  0
 12 13  2  0  0  0  0
 12 14  1  0  0  0  0
 14 15  1  6  0  0  0
 14 16  1  0  0  0  0
 14 45  1  0  0  0  0
 16 17  1  0  0  0  0
 16 31  1  0  0  0  0
 16 32  1  0  0  0  0
 17 18  1  0  0  0  0
 17 33  1  0  0  0  0
 17 34  1  0  0  0  0
 18 19  1  0  0  0  0
 18 35  1  0  0  0  0
 18 36  1  0  0  0  0
 19 37  1  0  0  0  0
 19 38  1  0  0  0  0
 19 43  1  0  0  0  0
 39 43  1  0  0  0  0
 40 43  1  0  0  0  0
 41 45  1  0  0  0  0
 42 45  1  0  0  0  0
 43 44  1  0  0  0  0
 45 46  1  0  0  0  0
M  CHG  2  43   1  45   1
M  END
$$$$
