ZINC05752191
 OpenBabel08292219463D

 57 60  0  0  1  0  0  0  0  0999 V2000
   -2.2842   10.5875    2.7189 C   0  0  0  0  0  0  0  0  0  0  0  0
   -1.7184    9.2273    3.1321 C   0  0  1  0  0  0  0  0  0  0  0  0
   -1.7981    9.1008    4.2118 H   0  0  0  0  0  0  0  0  0  0  0  0
   -2.4831    8.0884    2.4039 C   0  0  0  0  0  0  0  0  0  0  0  0
   -1.3810    7.0630    2.1106 C   0  0  1  0  0  0  0  0  0  0  0  0
   -1.1138    6.5130    3.0129 H   0  0  0  0  0  0  0  0  0  0  0  0
   -1.6537    6.1012    0.9685 C   0  0  2  0  0  0  0  0  0  0  0  0
   -1.8456    6.6488    0.0458 H   0  0  0  0  0  0  0  0  0  0  0  0
   -2.8587    5.2215    1.3068 C   0  0  0  0  0  0  0  0  0  0  0  0
   -3.1544    4.2808    0.1344 C   0  0  1  0  0  0  0  0  0  0  0  0
   -3.4510    4.8618   -0.7388 H   0  0  0  0  0  0  0  0  0  0  0  0
   -1.8905    3.5003   -0.1748 C   0  0  0  0  0  0  0  0  0  0  0  0
   -1.9546    2.1780   -0.2449 C   0  0  0  0  0  0  0  0  0  0  0  0
   -0.7442    1.3826   -0.5025 C   0  0  0  0  0  0  0  0  0  0  0  0
   -0.8043    0.1710   -0.5979 O   0  0  0  0  0  0  0  0  0  0  0  0
    0.5410    2.0868   -0.6483 C   0  0  0  0  0  0  0  0  0  0  0  0
    0.5794    3.4084   -0.5862 C   0  0  0  0  0  0  0  0  0  0  0  0
   -0.6194    4.2698   -0.3803 C   0  0  2  0  0  0  0  0  0  0  0  0
   -0.4042    5.2221    0.7997 C   0  0  1  0  0  0  0  0  0  0  0  0
    0.8448    6.0621    0.5492 C   0  0  2  0  0  0  0  0  0  0  0  0
    1.7158    5.4070    0.5297 H   0  0  0  0  0  0  0  0  0  0  0  0
    1.0430    7.1247    1.6416 C   0  0  0  0  0  0  0  0  0  0  0  0
   -0.2093    7.9800    1.6681 C   0  0  2  0  0  0  0  0  0  0  0  0
   -0.2381    9.1112    2.6910 C   0  0  1  0  0  0  0  0  0  0  0  0
    0.2207   10.3995    2.0579 C   0  0  0  0  0  0  0  0  0  0  0  0
   -0.3470   10.8285    1.0822 O   0  0  0  0  0  0  0  0  0  0  0  0
    1.3881   11.1524    2.6423 C   0  0  0  0  0  0  0  0  0  0  0  0
    1.6281   12.3316    1.8718 O   0  0  0  0  0  0  0  0  0  0  0  0
    0.5899    8.7879    3.8100 O   0  0  0  0  0  0  0  0  0  0  0  0
   -0.4861    8.5375    0.2704 C   0  0  0  0  0  0  0  0  0  0  0  0
    0.7227    6.7126   -0.7172 O   0  0  0  0  0  0  0  0  0  0  0  0
   -0.2073    4.4735    1.9651 F   0  0  0  0  0  0  0  0  0  0  0  0
   -0.7938    5.1365   -1.6291 C   0  0  0  0  0  0  0  0  0  0  0  0
   -4.1811    3.3975    0.4849 F   0  0  0  0  0  0  0  0  0  0  0  0
   -2.2243   10.6921    1.6356 H   0  0  0  0  0  0  0  0  0  0  0  0
   -3.3253   10.6587    3.0338 H   0  0  0  0  0  0  0  0  0  0  0  0
   -1.7062   11.3807    3.1931 H   0  0  0  0  0  0  0  0  0  0  0  0
   -3.2469    7.6603    3.0531 H   0  0  0  0  0  0  0  0  0  0  0  0
   -2.9239    8.4519    1.4757 H   0  0  0  0  0  0  0  0  0  0  0  0
   -3.7276    5.8525    1.4937 H   0  0  0  0  0  0  0  0  0  0  0  0
   -2.6391    4.6331    2.1977 H   0  0  0  0  0  0  0  0  0  0  0  0
   -2.9032    1.6802   -0.1074 H   0  0  0  0  0  0  0  0  0  0  0  0
    1.4505    1.5259   -0.8053 H   0  0  0  0  0  0  0  0  0  0  0  0
    1.5389    3.8927   -0.6917 H   0  0  0  0  0  0  0  0  0  0  0  0
    1.1830    6.6415    2.6085 H   0  0  0  0  0  0  0  0  0  0  0  0
    1.9103    7.7416    1.4063 H   0  0  0  0  0  0  0  0  0  0  0  0
    1.1810   11.4077    3.5867 H   0  0  0  0  0  0  0  0  0  0  0  0
    2.2751   10.5191    2.6233 H   0  0  0  0  0  0  0  0  0  0  0  0
    2.3675   12.8666    2.1915 H   0  0  0  0  0  0  0  0  0  0  0  0
    0.6110    9.4711    4.4940 H   0  0  0  0  0  0  0  0  0  0  0  0
   -0.7720    7.7233   -0.3954 H   0  0  0  0  0  0  0  0  0  0  0  0
   -1.2960    9.2651    0.3233 H   0  0  0  0  0  0  0  0  0  0  0  0
    0.4126    9.0213   -0.1122 H   0  0  0  0  0  0  0  0  0  0  0  0
    1.4801    7.2674   -0.9491 H   0  0  0  0  0  0  0  0  0  0  0  0
   -1.2866    4.5556   -2.4086 H   0  0  0  0  0  0  0  0  0  0  0  0
   -1.4025    6.0071   -1.3850 H   0  0  0  0  0  0  0  0  0  0  0  0
    0.1836    5.4643   -1.9832 H   0  0  0  0  0  0  0  0  0  0  0  0
  1  2  1  0  0  0  0
  1 35  1  0  0  0  0
  1 36  1  0  0  0  0
  1 37  1  0  0  0  0
  2  3  1  1  0  0  0
  2 24  1  0  0  0  0
  2  4  1  0  0  0  0
  4  5  1  0  0  0  0
  4 38  1  0  0  0  0
  4 39  1  0  0  0  0
  5  6  1  1  0  0  0
  5 23  1  0  0  0  0
  5  7  1  0  0  0  0
  7  8  1  6  0  0  0
  7 19  1  0  0  0  0
  7  9  1  0  0  0  0
  9 10  1  0  0  0  0
  9 40  1  0  0  0  0
  9 41  1  0  0  0  0
 10 11  1  6  0  0  0
 10 12  1  0  0  0  0
 10 34  1  0  0  0  0
 12 18  1  0  0  0  0
 12 13  2  0  0  0  0
 13 14  1  0  0  0  0
 13 42  1  0  0  0  0
 14 15  2  0  0  0  0
 14 16  1  0  0  0  0
 16 17  2  0  0  0  0
 16 43  1  0  0  0  0
 17 18  1  0  0  0  0
 17 44  1  0  0  0  0
 18 19  1  0  0  0  0
 18 33  1  6  0  0  0
 19 20  1  0  0  0  0
 19 32  1  1  0  0  0
 20 21  1  6  0  0  0
 20 22  1  0  0  0  0
 20 31  1  0  0  0  0
 22 23  1  0  0  0  0
 22 45  1  0  0  0  0
 22 46  1  0  0  0  0
 23 24  1  0  0  0  0
 23 30  1  6  0  0  0
 24 25  1  6  0  0  0
 24 29  1  0  0  0  0
 25 26  2  0  0  0  0
 25 27  1  0  0  0  0
 27 28  1  0  0  0  0
 27 47  1  0  0  0  0
 27 48  1  0  0  0  0
 28 49  1  0  0  0  0
 29 50  1  0  0  0  0
 30 51  1  0  0  0  0
 30 52  1  0  0  0  0
 30 53  1  0  0  0  0
 31 54  1  0  0  0  0
 33 55  1  0  0  0  0
 33 56  1  0  0  0  0
 33 57  1  0  0  0  0
M  END
$$$$
