ZINC04097185
 OpenBabel08292219463D

 89 94  0  0  1  0  0  0  0  0999 V2000
   11.4164    5.5409    0.1571 C   0  0  0  0  0  0  0  0  0  0  0  0
   10.5613    4.7230    0.9583 O   0  0  0  0  0  0  0  0  0  0  0  0
    9.3704    4.3569    0.4144 C   0  0  0  0  0  0  0  0  0  0  0  0
    9.0556    4.7898   -0.8681 C   0  0  0  0  0  0  0  0  0  0  0  0
    7.8725    4.4572   -1.4787 C   0  0  0  0  0  0  0  0  0  0  0  0
    6.9861    3.6564   -0.7509 C   0  0  0  0  0  0  0  0  0  0  0  0
    7.2998    3.2117    0.5598 C   0  0  0  0  0  0  0  0  0  0  0  0
    8.5082    3.5622    1.1580 C   0  0  0  0  0  0  0  0  0  0  0  0
    6.2468    2.4603    0.9982 N   0  0  0  0  0  0  0  0  0  0  0  0
    6.1909    2.0310    1.8662 H   0  0  0  0  0  0  0  0  0  0  0  0
    5.2820    2.4039    0.0279 C   0  0  0  0  0  0  0  0  0  0  0  0
    5.6802    3.1123   -1.0536 C   0  0  0  0  0  0  0  0  0  0  0  0
    4.8541    3.2567   -2.3069 C   0  0  0  0  0  0  0  0  0  0  0  0
    3.7502    2.1900   -2.2778 C   0  0  0  0  0  0  0  0  0  0  0  0
    3.9586    1.6822    0.0908 C   0  0  1  0  0  0  0  0  0  0  0  0
    4.1168    0.6150   -0.0646 H   0  0  0  0  0  0  0  0  0  0  0  0
    3.3008    1.9178    1.4515 C   0  0  0  0  0  0  0  0  0  0  0  0
    1.9441    1.2040    1.4799 C   0  0  1  0  0  0  0  0  0  0  0  0
    1.4519    1.3924    2.4340 H   0  0  0  0  0  0  0  0  0  0  0  0
    1.0779    1.7289    0.3330 C   0  0  1  0  0  0  0  0  0  0  0  0
    0.9086    2.7971    0.4683 H   0  0  0  0  0  0  0  0  0  0  0  0
    1.8013    1.5056   -0.9970 C   0  0  0  0  0  0  0  0  0  0  0  0
   -0.2656    1.0012    0.3208 C   0  0  0  0  0  0  0  0  0  0  0  0
   -0.0356   -0.5010    0.1454 C   0  0  2  0  0  0  0  0  0  0  0  0
   -0.9953   -1.0178    0.1398 H   0  0  0  0  0  0  0  0  0  0  0  0
    0.8179   -1.0214    1.3043 C   0  0  1  0  0  0  0  0  0  0  0  0
    0.9785   -2.0929    1.1850 H   0  0  0  0  0  0  0  0  0  0  0  0
    2.1667   -0.3001    1.3056 C   0  0  1  0  0  0  0  0  0  0  0  0
    2.7777   -0.6742    2.1270 H   0  0  0  0  0  0  0  0  0  0  0  0
    2.8729   -0.5542   -0.0013 C   0  0  0  0  0  0  0  0  0  0  0  0
    2.2318   -0.7297   -1.0103 O   0  0  0  0  0  0  0  0  0  0  0  0
    4.2142   -0.5856   -0.0443 O   0  0  0  0  0  0  0  0  0  0  0  0
    4.8246   -0.9553   -1.3088 C   0  0  0  0  0  0  0  0  0  0  0  0
    0.1445   -0.7751    2.5404 O   0  0  0  0  0  0  0  0  0  0  0  0
   -0.7174   -1.8371    2.9543 C   0  0  0  0  0  0  0  0  0  0  0  0
    0.6419   -0.7387   -1.0901 O   0  0  0  0  0  0  0  0  0  0  0  0
   -0.1261   -0.9371   -2.1816 C   0  0  0  0  0  0  0  0  0  0  0  0
   -1.3385   -0.9088   -2.0855 O   0  0  0  0  0  0  0  0  0  0  0  0
    0.4798   -1.1786   -3.4404 C   0  0  0  0  0  0  0  0  0  0  0  0
   -0.2893   -1.3773   -4.5333 C   0  0  0  0  0  0  0  0  0  0  0  0
    0.3388   -1.6275   -5.8380 C   0  0  0  0  0  0  0  0  0  0  0  0
    1.7336   -1.6548   -5.9516 C   0  0  0  0  0  0  0  0  0  0  0  0
    2.3205   -1.8961   -7.1790 C   0  0  0  0  0  0  0  0  0  0  0  0
    1.5260   -2.1007   -8.3045 C   0  0  0  0  0  0  0  0  0  0  0  0
    0.1378   -2.0687   -8.1965 C   0  0  0  0  0  0  0  0  0  0  0  0
   -0.4563   -1.8336   -6.9714 C   0  0  0  0  0  0  0  0  0  0  0  0
   -0.6339   -2.2686   -9.2983 O   0  0  0  0  0  0  0  0  0  0  0  0
   -2.0504   -2.2217   -9.1155 C   0  0  0  0  0  0  0  0  0  0  0  0
    2.1069   -2.3318   -9.5113 O   0  0  0  0  0  0  0  0  0  0  0  0
    2.3948   -1.1907  -10.3218 C   0  0  0  0  0  0  0  0  0  0  0  0
    3.6756   -1.9279   -7.2893 O   0  0  0  0  0  0  0  0  0  0  0  0
    4.4290   -1.7100   -6.0947 C   0  0  0  0  0  0  0  0  0  0  0  0
   10.9058    6.4731   -0.0844 H   0  0  0  0  0  0  0  0  0  0  0  0
   12.3309    5.7597    0.7084 H   0  0  0  0  0  0  0  0  0  0  0  0
   11.6649    5.0136   -0.7640 H   0  0  0  0  0  0  0  0  0  0  0  0
    9.7641    5.4068   -1.4009 H   0  0  0  0  0  0  0  0  0  0  0  0
    7.6365    4.7981   -2.4759 H   0  0  0  0  0  0  0  0  0  0  0  0
    8.7627    3.2308    2.1539 H   0  0  0  0  0  0  0  0  0  0  0  0
    4.4056    4.2495   -2.3395 H   0  0  0  0  0  0  0  0  0  0  0  0
    5.4859    3.1095   -3.1829 H   0  0  0  0  0  0  0  0  0  0  0  0
    4.1897    1.2071   -2.4474 H   0  0  0  0  0  0  0  0  0  0  0  0
    3.0195    2.4015   -3.0585 H   0  0  0  0  0  0  0  0  0  0  0  0
    3.1538    2.9869    1.6054 H   0  0  0  0  0  0  0  0  0  0  0  0
    3.9395    1.5188    2.2395 H   0  0  0  0  0  0  0  0  0  0  0  0
    1.9732    0.4393   -1.1436 H   0  0  0  0  0  0  0  0  0  0  0  0
    1.1906    1.8917   -1.8131 H   0  0  0  0  0  0  0  0  0  0  0  0
   -0.8726    1.3740   -0.5043 H   0  0  0  0  0  0  0  0  0  0  0  0
   -0.7843    1.1813    1.2623 H   0  0  0  0  0  0  0  0  0  0  0  0
    4.6581   -0.1627   -2.0382 H   0  0  0  0  0  0  0  0  0  0  0  0
    5.8957   -1.0992   -1.1668 H   0  0  0  0  0  0  0  0  0  0  0  0
    4.3784   -1.8816   -1.6706 H   0  0  0  0  0  0  0  0  0  0  0  0
   -1.1907   -1.5731    3.9001 H   0  0  0  0  0  0  0  0  0  0  0  0
   -1.4844   -1.9987    2.1969 H   0  0  0  0  0  0  0  0  0  0  0  0
   -0.1347   -2.7493    3.0818 H   0  0  0  0  0  0  0  0  0  0  0  0
    1.5561   -1.2037   -3.5256 H   0  0  0  0  0  0  0  0  0  0  0  0
   -1.3656   -1.3522   -4.4480 H   0  0  0  0  0  0  0  0  0  0  0  0
    2.3503   -1.4918   -5.0801 H   0  0  0  0  0  0  0  0  0  0  0  0
   -1.5328   -1.8092   -6.8883 H   0  0  0  0  0  0  0  0  0  0  0  0
   -2.3506   -2.9912   -8.4042 H   0  0  0  0  0  0  0  0  0  0  0  0
   -2.3351   -1.2418   -8.7323 H   0  0  0  0  0  0  0  0  0  0  0  0
   -2.5460   -2.3965  -10.0704 H   0  0  0  0  0  0  0  0  0  0  0  0
    1.4697   -0.6569  -10.5395 H   0  0  0  0  0  0  0  0  0  0  0  0
    3.0789   -0.5300   -9.7892 H   0  0  0  0  0  0  0  0  0  0  0  0
    2.8554   -1.5148  -11.2550 H   0  0  0  0  0  0  0  0  0  0  0  0
    4.1912   -0.7265   -5.6894 H   0  0  0  0  0  0  0  0  0  0  0  0
    4.1769   -2.4759   -5.3613 H   0  0  0  0  0  0  0  0  0  0  0  0
    5.4938   -1.7614   -6.3223 H   0  0  0  0  0  0  0  0  0  0  0  0
    3.0795    2.2479   -0.9563 N   0  3  2  0  0  0  0  0  0  0  0  0
    2.8842    3.2299   -0.7288 H   0  0  0  0  0  0  0  0  0  0  0  0
  1  2  1  0  0  0  0
  1 53  1  0  0  0  0
  1 54  1  0  0  0  0
  1 55  1  0  0  0  0
  2  3  1  0  0  0  0
  3  8  2  0  0  0  0
  3  4  1  0  0  0  0
  4  5  2  0  0  0  0
  4 56  1  0  0  0  0
  5  6  1  0  0  0  0
  5 57  1  0  0  0  0
  6 12  1  0  0  0  0
  6  7  2  0  0  0  0
  7  8  1  0  0  0  0
  7  9  1  0  0  0  0
  8 58  1  0  0  0  0
  9 10  1  0  0  0  0
  9 11  1  0  0  0  0
 11 15  1  0  0  0  0
 11 12  2  0  0  0  0
 12 13  1  0  0  0  0
 13 14  1  0  0  0  0
 13 59  1  0  0  0  0
 13 60  1  0  0  0  0
 14 61  1  0  0  0  0
 14 62  1  0  0  0  0
 14 88  1  0  0  0  0
 15 16  1  6  0  0  0
 15 17  1  0  0  0  0
 15 88  1  0  0  0  0
 17 18  1  0  0  0  0
 17 63  1  0  0  0  0
 17 64  1  0  0  0  0
 18 19  1  1  0  0  0
 18 28  1  0  0  0  0
 18 20  1  0  0  0  0
 20 21  1  1  0  0  0
 20 22  1  0  0  0  0
 20 23  1  0  0  0  0
 22 65  1  0  0  0  0
 22 66  1  0  0  0  0
 22 88  1  0  0  0  0
 23 24  1  0  0  0  0
 23 67  1  0  0  0  0
 23 68  1  0  0  0  0
 24 25  1  6  0  0  0
 24 26  1  0  0  0  0
 24 36  1  0  0  0  0
 26 27  1  6  0  0  0
 26 28  1  0  0  0  0
 26 34  1  0  0  0  0
 28 29  1  1  0  0  0
 28 30  1  0  0  0  0
 30 31  2  0  0  0  0
 30 32  1  0  0  0  0
 32 33  1  0  0  0  0
 33 69  1  0  0  0  0
 33 70  1  0  0  0  0
 33 71  1  0  0  0  0
 34 35  1  0  0  0  0
 35 72  1  0  0  0  0
 35 73  1  0  0  0  0
 35 74  1  0  0  0  0
 36 37  1  0  0  0  0
 37 38  2  0  0  0  0
 37 39  1  0  0  0  0
 39 40  2  0  0  0  0
 39 75  1  0  0  0  0
 40 41  1  0  0  0  0
 40 76  1  0  0  0  0
 41 46  2  0  0  0  0
 41 42  1  0  0  0  0
 42 43  2  0  0  0  0
 42 77  1  0  0  0  0
 43 44  1  0  0  0  0
 43 51  1  0  0  0  0
 44 45  2  0  0  0  0
 44 49  1  0  0  0  0
 45 46  1  0  0  0  0
 45 47  1  0  0  0  0
 46 78  1  0  0  0  0
 47 48  1  0  0  0  0
 48 79  1  0  0  0  0
 48 80  1  0  0  0  0
 48 81  1  0  0  0  0
 49 50  1  0  0  0  0
 50 82  1  0  0  0  0
 50 83  1  0  0  0  0
 50 84  1  0  0  0  0
 51 52  1  0  0  0  0
 52 85  1  0  0  0  0
 52 86  1  0  0  0  0
 52 87  1  0  0  0  0
 88 89  1  1  0  0  0
M  CHG  1  88   1
M  END
$$$$
