ZINC01542930
 OpenBabel08292219463D

 63 65  0  0  1  0  0  0  0  0999 V2000
   -9.6284    4.1758   -7.6257 C   0  0  0  0  0  0  0  0  0  0  0  0
   -8.8749    3.6863   -6.3874 C   0  0  0  0  0  0  0  0  0  0  0  0
   -7.3684    3.7682   -6.6416 C   0  0  0  0  0  0  0  0  0  0  0  0
   -6.6148    3.2788   -5.4033 C   0  0  0  0  0  0  0  0  0  0  0  0
   -5.1083    3.3607   -5.6576 C   0  0  0  0  0  0  0  0  0  0  0  0
   -4.3547    2.8713   -4.4192 C   0  0  0  0  0  0  0  0  0  0  0  0
   -2.8482    2.9532   -4.6735 C   0  0  0  0  0  0  0  0  0  0  0  0
   -2.4587    4.4033   -4.9675 C   0  0  0  0  0  0  0  0  0  0  0  0
   -2.4848    2.0744   -5.8721 C   0  0  0  0  0  0  0  0  0  0  0  0
   -2.1060    2.4711   -3.4538 C   0  0  0  0  0  0  0  0  0  0  0  0
   -2.8080    2.0469   -2.3415 C   0  0  0  0  0  0  0  0  0  0  0  0
   -2.1230    1.6006   -1.2218 C   0  0  0  0  0  0  0  0  0  0  0  0
   -0.7345    1.5796   -1.2144 C   0  0  0  0  0  0  0  0  0  0  0  0
   -0.0226    1.9869   -2.3363 C   0  0  0  0  0  0  0  0  0  0  0  0
   -0.7137    2.4186   -3.4651 C   0  0  0  0  0  0  0  0  0  0  0  0
    1.3353    1.9948   -2.3676 O   0  0  0  0  0  0  0  0  0  0  0  0
    2.0477    1.2750   -1.3587 C   0  0  0  0  0  0  0  0  0  0  0  0
    1.4251    1.6113   -0.0029 C   0  0  1  0  0  0  0  0  0  0  0  0
    1.4168    2.6930    0.1311 H   0  0  0  0  0  0  0  0  0  0  0  0
   -0.0127    1.0858    0.0080 C   0  0  1  0  0  0  0  0  0  0  0  0
    0.0021   -0.0041    0.0020 H   0  0  0  0  0  0  0  0  0  0  0  0
   -0.7089    1.5751    1.2795 C   0  0  0  0  0  0  0  0  0  0  0  0
    0.1184    1.1202    2.4645 C   0  0  0  0  0  0  0  0  0  0  0  0
   -0.3970    0.5338    3.3857 O   0  0  0  0  0  0  0  0  0  0  0  0
    1.6012    1.4148    2.4721 C   0  0  0  0  0  0  0  0  0  0  0  0
    2.2086    0.9644    1.1371 C   0  0  0  0  0  0  0  0  0  0  0  0
    3.5196    1.6923   -1.3687 C   0  0  0  0  0  0  0  0  0  0  0  0
    1.9347   -0.2283   -1.6200 C   0  0  0  0  0  0  0  0  0  0  0  0
   -2.8126    1.1826   -0.1279 O   0  0  0  0  0  0  0  0  0  0  0  0
   -9.3510    5.2088   -7.8352 H   0  0  0  0  0  0  0  0  0  0  0  0
   -9.3695    3.5497   -8.4796 H   0  0  0  0  0  0  0  0  0  0  0  0
  -10.7017    4.1174   -7.4445 H   0  0  0  0  0  0  0  0  0  0  0  0
   -9.1524    2.6533   -6.1779 H   0  0  0  0  0  0  0  0  0  0  0  0
   -9.1338    4.3124   -5.5335 H   0  0  0  0  0  0  0  0  0  0  0  0
   -7.0909    4.8013   -6.8511 H   0  0  0  0  0  0  0  0  0  0  0  0
   -7.1095    3.1422   -7.4955 H   0  0  0  0  0  0  0  0  0  0  0  0
   -6.8923    2.2457   -5.1938 H   0  0  0  0  0  0  0  0  0  0  0  0
   -6.8737    3.9048   -4.5494 H   0  0  0  0  0  0  0  0  0  0  0  0
   -4.8308    4.3938   -5.8670 H   0  0  0  0  0  0  0  0  0  0  0  0
   -4.8494    2.7347   -6.5115 H   0  0  0  0  0  0  0  0  0  0  0  0
   -4.6322    1.8382   -4.2098 H   0  0  0  0  0  0  0  0  0  0  0  0
   -4.6136    3.4973   -3.5653 H   0  0  0  0  0  0  0  0  0  0  0  0
   -1.3855    4.4616   -5.1487 H   0  0  0  0  0  0  0  0  0  0  0  0
   -2.9956    4.7519   -5.8497 H   0  0  0  0  0  0  0  0  0  0  0  0
   -2.7176    5.0293   -4.1136 H   0  0  0  0  0  0  0  0  0  0  0  0
   -2.7623    1.0414   -5.6626 H   0  0  0  0  0  0  0  0  0  0  0  0
   -3.0217    2.4231   -6.7543 H   0  0  0  0  0  0  0  0  0  0  0  0
   -1.4115    2.1328   -6.0532 H   0  0  0  0  0  0  0  0  0  0  0  0
   -3.8878    2.0627   -2.3446 H   0  0  0  0  0  0  0  0  0  0  0  0
   -0.1665    2.7428   -4.3380 H   0  0  0  0  0  0  0  0  0  0  0  0
   -0.7744    2.5728    1.2608 H   0  0  0  0  0  0  0  0  0  0  0  0
   -1.7091    1.1462    1.3411 H   0  0  0  0  0  0  0  0  0  0  0  0
    2.0356    0.9194    3.2244 H   0  0  0  0  0  0  0  0  0  0  0  0
    1.7607    2.4852    2.6026 H   0  0  0  0  0  0  0  0  0  0  0  0
    2.1452   -0.1206    1.0543 H   0  0  0  0  0  0  0  0  0  0  0  0
    3.2518    1.2763    1.0865 H   0  0  0  0  0  0  0  0  0  0  0  0
    4.0541    1.1579   -0.5834 H   0  0  0  0  0  0  0  0  0  0  0  0
    3.9592    1.4509   -2.3365 H   0  0  0  0  0  0  0  0  0  0  0  0
    3.5942    2.7656   -1.1934 H   0  0  0  0  0  0  0  0  0  0  0  0
    0.8840   -0.5186   -1.6231 H   0  0  0  0  0  0  0  0  0  0  0  0
    2.3794   -0.4634   -2.5869 H   0  0  0  0  0  0  0  0  0  0  0  0
    2.4600   -0.7738   -0.8361 H   0  0  0  0  0  0  0  0  0  0  0  0
   -3.0015    1.8846    0.5098 H   0  0  0  0  0  0  0  0  0  0  0  0
  1  2  1  0  0  0  0
  1 30  1  0  0  0  0
  1 31  1  0  0  0  0
  1 32  1  0  0  0  0
  2  3  1  0  0  0  0
  2 33  1  0  0  0  0
  2 34  1  0  0  0  0
  3  4  1  0  0  0  0
  3 35  1  0  0  0  0
  3 36  1  0  0  0  0
  4  5  1  0  0  0  0
  4 37  1  0  0  0  0
  4 38  1  0  0  0  0
  5  6  1  0  0  0  0
  5 39  1  0  0  0  0
  5 40  1  0  0  0  0
  6  7  1  0  0  0  0
  6 41  1  0  0  0  0
  6 42  1  0  0  0  0
  7  8  1  0  0  0  0
  7  9  1  0  0  0  0
  7 10  1  0  0  0  0
  8 43  1  0  0  0  0
  8 44  1  0  0  0  0
  8 45  1  0  0  0  0
  9 46  1  0  0  0  0
  9 47  1  0  0  0  0
  9 48  1  0  0  0  0
 10 15  2  0  0  0  0
 10 11  1  0  0  0  0
 11 12  2  0  0  0  0
 11 49  1  0  0  0  0
 12 13  1  0  0  0  0
 12 29  1  0  0  0  0
 13 20  1  0  0  0  0
 13 14  2  0  0  0  0
 14 15  1  0  0  0  0
 14 16  1  0  0  0  0
 15 50  1  0  0  0  0
 16 17  1  0  0  0  0
 17 18  1  0  0  0  0
 17 27  1  0  0  0  0
 17 28  1  0  0  0  0
 18 19  1  1  0  0  0
 18 26  1  0  0  0  0
 18 20  1  0  0  0  0
 20 21  1  6  0  0  0
 20 22  1  0  0  0  0
 22 23  1  0  0  0  0
 22 51  1  0  0  0  0
 22 52  1  0  0  0  0
 23 24  2  0  0  0  0
 23 25  1  0  0  0  0
 25 26  1  0  0  0  0
 25 53  1  0  0  0  0
 25 54  1  0  0  0  0
 26 55  1  0  0  0  0
 26 56  1  0  0  0  0
 27 57  1  0  0  0  0
 27 58  1  0  0  0  0
 27 59  1  0  0  0  0
 28 60  1  0  0  0  0
 28 61  1  0  0  0  0
 28 62  1  0  0  0  0
 29 63  1  0  0  0  0
M  END
$$$$
