ZINC08101126
 OpenBabel08292219463D

 10  9  0  0  0  0  0  0  0  0999 V2000
   -1.4567    1.9661    0.0197 C   0  0  0  0  0  0  0  0  0  0  0  0
   -0.1090    1.6946    0.0119 N   0  0  0  0  0  0  0  0  0  0  0  0
   -1.8955    3.2690    0.0289 N   0  0  0  0  0  0  0  0  0  0  0  0
   -2.1071    0.0360    0.0122 H   0  0  0  0  0  0  0  0  0  0  0  0
    0.2006    0.7754    0.0053 H   0  0  0  0  0  0  0  0  0  0  0  0
    0.5323    2.4224    0.0088 H   0  0  0  0  0  0  0  0  0  0  0  0
   -1.2541    3.9967    0.0298 H   0  0  0  0  0  0  0  0  0  0  0  0
   -2.8464    3.4605    0.0344 H   0  0  0  0  0  0  0  0  0  0  0  0
   -2.3827    1.0181    0.0189 N   0  0  0  0  0  4  0  0  0  0  0  0
   -3.3775    1.2722    0.0251 H   0  0  0  0  0  0  0  0  0  0  0  0
  1  2  1  0  0  0  0
  1  3  1  0  0  0  0
  1  9  2  0  0  0  0
  2  5  1  0  0  0  0
  2  6  1  0  0  0  0
  3  7  1  0  0  0  0
  3  8  1  0  0  0  0
  4  9  1  0  0  0  0
  9 10  1  0  0  0  0
M  END
$$$$
