ZINC19796082
 OpenBabel08292219463D

 44 46  0  0  0  0  0  0  0  0999 V2000
   -0.0184    1.5028    0.0103 C   0  0  0  0  0  0  0  0  0  0  0  0
    0.0021   -0.0041    0.0020 C   0  0  0  0  0  0  0  0  0  0  0  0
    0.0062   -0.7100   -1.1878 C   0  0  0  0  0  0  0  0  0  0  0  0
    0.0254   -2.1070   -1.1217 C   0  0  0  0  0  0  0  0  0  0  0  0
    0.0390   -2.7109    0.0589 N   0  0  0  0  0  0  0  0  0  0  0  0
    0.0352   -2.0542    1.1617 N   0  0  0  0  0  0  0  0  0  0  0  0
    0.0232   -0.7291    1.1942 C   0  0  0  0  0  0  0  0  0  0  0  0
    0.0257   -0.0628    2.4140 N   0  0  0  0  0  0  0  0  0  0  0  0
    0.0479   -0.8250    3.6650 C   0  0  0  0  0  0  0  0  0  0  0  0
    0.0460    0.1414    4.8511 C   0  0  0  0  0  0  0  0  0  0  0  0
    0.0683   -0.6228    6.1054 N   0  0  0  0  0  0  0  0  0  0  0  0
   -1.1772   -1.3839    6.2809 C   0  0  0  0  0  0  0  0  0  0  0  0
   -1.0874   -2.2100    7.5667 C   0  0  0  0  0  0  0  0  0  0  0  0
   -0.8255   -1.3384    8.6700 O   0  0  0  0  0  0  0  0  0  0  0  0
    0.3805   -0.5821    8.5325 C   0  0  0  0  0  0  0  0  0  0  0  0
    0.3055    0.2605    7.2564 C   0  0  0  0  0  0  0  0  0  0  0  0
    0.0301   -2.9107   -2.3683 C   0  0  0  0  0  0  0  0  0  0  0  0
    0.0212   -2.2766   -3.6094 C   0  0  0  0  0  0  0  0  0  0  0  0
    0.0261   -3.0294   -4.7661 C   0  0  0  0  0  0  0  0  0  0  0  0
    0.0393   -4.4108   -4.6953 C   0  0  0  0  0  0  0  0  0  0  0  0
    0.0478   -5.0455   -3.4663 C   0  0  0  0  0  0  0  0  0  0  0  0
    0.0493   -4.3027   -2.3031 C   0  0  0  0  0  0  0  0  0  0  0  0
    1.0042    1.8801    0.0026 H   0  0  0  0  0  0  0  0  0  0  0  0
   -0.5455    1.8639   -0.8728 H   0  0  0  0  0  0  0  0  0  0  0  0
   -0.5286    1.8543    0.9071 H   0  0  0  0  0  0  0  0  0  0  0  0
   -0.0055   -0.1980   -2.1387 H   0  0  0  0  0  0  0  0  0  0  0  0
    0.0127    0.9068    2.4371 H   0  0  0  0  0  0  0  0  0  0  0  0
   -0.8330   -1.4649    3.7162 H   0  0  0  0  0  0  0  0  0  0  0  0
    0.9468   -1.4407    3.6994 H   0  0  0  0  0  0  0  0  0  0  0  0
    0.9269    0.7813    4.7998 H   0  0  0  0  0  0  0  0  0  0  0  0
   -0.8528    0.7571    4.8167 H   0  0  0  0  0  0  0  0  0  0  0  0
   -2.0186   -0.6943    6.3493 H   0  0  0  0  0  0  0  0  0  0  0  0
   -1.3198   -2.0498    5.4297 H   0  0  0  0  0  0  0  0  0  0  0  0
   -2.0302   -2.7316    7.7309 H   0  0  0  0  0  0  0  0  0  0  0  0
   -0.2796   -2.9363    7.4770 H   0  0  0  0  0  0  0  0  0  0  0  0
    0.4992    0.0736    9.3951 H   0  0  0  0  0  0  0  0  0  0  0  0
    1.2309   -1.2611    8.4709 H   0  0  0  0  0  0  0  0  0  0  0  0
    1.2453    0.7950    7.1174 H   0  0  0  0  0  0  0  0  0  0  0  0
   -0.5121    0.9764    7.3405 H   0  0  0  0  0  0  0  0  0  0  0  0
    0.0101   -1.1981   -3.6658 H   0  0  0  0  0  0  0  0  0  0  0  0
    0.0191   -2.5390   -5.7283 H   0  0  0  0  0  0  0  0  0  0  0  0
    0.0428   -4.9959   -5.6030 H   0  0  0  0  0  0  0  0  0  0  0  0
    0.0578   -6.1243   -3.4169 H   0  0  0  0  0  0  0  0  0  0  0  0
    0.0604   -4.7993   -1.3441 H   0  0  0  0  0  0  0  0  0  0  0  0
  1  2  1  0  0  0  0
  1 23  1  0  0  0  0
  1 24  1  0  0  0  0
  1 25  1  0  0  0  0
  2  7  2  0  0  0  0
  2  3  1  0  0  0  0
  3  4  2  0  0  0  0
  3 26  1  0  0  0  0
  4  5  1  0  0  0  0
  4 17  1  0  0  0  0
  5  6  2  0  0  0  0
  6  7  1  0  0  0  0
  7  8  1  0  0  0  0
  8  9  1  0  0  0  0
  8 27  1  0  0  0  0
  9 10  1  0  0  0  0
  9 28  1  0  0  0  0
  9 29  1  0  0  0  0
 10 11  1  0  0  0  0
 10 30  1  0  0  0  0
 10 31  1  0  0  0  0
 11 16  1  0  0  0  0
 11 12  1  0  0  0  0
 12 13  1  0  0  0  0
 12 32  1  0  0  0  0
 12 33  1  0  0  0  0
 13 14  1  0  0  0  0
 13 34  1  0  0  0  0
 13 35  1  0  0  0  0
 14 15  1  0  0  0  0
 15 16  1  0  0  0  0
 15 36  1  0  0  0  0
 15 37  1  0  0  0  0
 16 38  1  0  0  0  0
 16 39  1  0  0  0  0
 17 22  2  0  0  0  0
 17 18  1  0  0  0  0
 18 19  2  0  0  0  0
 18 40  1  0  0  0  0
 19 20  1  0  0  0  0
 19 41  1  0  0  0  0
 20 21  2  0  0  0  0
 20 42  1  0  0  0  0
 21 22  1  0  0  0  0
 21 43  1  0  0  0  0
 22 44  1  0  0  0  0
M  END
$$$$
