ZINC00601283
 OpenBabel08292219463D

 40 42  0  0  0  0  0  0  0  0999 V2000
   -0.0182    1.5027    0.0102 C   0  0  0  0  0  0  0  0  0  0  0  0
    0.0021   -0.0042    0.0020 C   0  0  0  0  0  0  0  0  0  0  0  0
    0.0074   -0.7679   -1.0995 C   0  0  0  0  0  0  0  0  0  0  0  0
    0.0293   -2.1662   -0.6567 C   0  0  0  0  0  0  0  0  0  0  0  0
    0.0428   -3.3917   -1.3243 C   0  0  0  0  0  0  0  0  0  0  0  0
    0.0625   -4.5656   -0.5961 C   0  0  0  0  0  0  0  0  0  0  0  0
    0.0688   -4.5275    0.7953 C   0  0  0  0  0  0  0  0  0  0  0  0
    0.0551   -3.3226    1.4635 C   0  0  0  0  0  0  0  0  0  0  0  0
    0.0357   -2.1316    0.7482 C   0  0  0  0  0  0  0  0  0  0  0  0
    0.0240   -0.7990    1.1223 N   0  0  0  0  0  0  0  0  0  0  0  0
    0.0297   -0.3494    2.3928 C   0  0  0  0  0  0  0  0  0  0  0  0
   -1.0174   -0.0751    2.9450 O   0  0  0  0  0  0  0  0  0  0  0  0
    1.3084   -0.1902    3.1139 C   0  0  0  0  0  0  0  0  0  0  0  0
    2.5190   -0.3985    2.4491 C   0  0  0  0  0  0  0  0  0  0  0  0
    3.7097   -0.2483    3.1279 C   0  0  0  0  0  0  0  0  0  0  0  0
    3.7070    0.1084    4.4664 C   0  0  0  0  0  0  0  0  0  0  0  0
    2.5096    0.3160    5.1314 C   0  0  0  0  0  0  0  0  0  0  0  0
    1.3125    0.1750    4.4621 C   0  0  0  0  0  0  0  0  0  0  0  0
    5.2103    0.2955    5.3141 Cl  0  0  0  0  0  0  0  0  0  0  0  0
    0.0753   -5.7626   -1.2410 O   0  0  0  0  0  0  0  0  0  0  0  0
    0.0954   -6.9375   -0.4278 C   0  0  0  0  0  0  0  0  0  0  0  0
   -0.0069   -0.2812   -2.5257 C   0  0  0  0  0  0  0  0  0  0  0  0
    1.4090   -0.0991   -3.0085 C   0  0  0  0  0  0  0  0  0  0  0  0
    2.3431   -0.3421   -2.2636 O   0  0  0  0  0  0  0  0  0  0  0  0
    1.6204    0.2911   -4.1441 O   0  0  0  0  0  1  0  0  0  0  0  0
    1.0044    1.8799    0.0025 H   0  0  0  0  0  0  0  0  0  0  0  0
   -0.5453    1.8638   -0.8729 H   0  0  0  0  0  0  0  0  0  0  0  0
   -0.5284    1.8543    0.9070 H   0  0  0  0  0  0  0  0  0  0  0  0
    0.0376   -3.4222   -2.4038 H   0  0  0  0  0  0  0  0  0  0  0  0
    0.0842   -5.4504    1.3560 H   0  0  0  0  0  0  0  0  0  0  0  0
    0.0595   -3.3039    2.5434 H   0  0  0  0  0  0  0  0  0  0  0  0
    2.5224   -0.6770    1.4056 H   0  0  0  0  0  0  0  0  0  0  0  0
    4.6464   -0.4095    2.6151 H   0  0  0  0  0  0  0  0  0  0  0  0
    2.5140    0.5936    6.1751 H   0  0  0  0  0  0  0  0  0  0  0  0
    0.3798    0.3418    4.9804 H   0  0  0  0  0  0  0  0  0  0  0  0
    0.9887   -6.9318    0.1968 H   0  0  0  0  0  0  0  0  0  0  0  0
   -0.7911   -6.9558    0.2062 H   0  0  0  0  0  0  0  0  0  0  0  0
    0.1040   -7.8210   -1.0660 H   0  0  0  0  0  0  0  0  0  0  0  0
   -0.5139   -1.0132   -3.1543 H   0  0  0  0  0  0  0  0  0  0  0  0
   -0.5343    0.6712   -2.5793 H   0  0  0  0  0  0  0  0  0  0  0  0
  1  2  1  0  0  0  0
  1 26  1  0  0  0  0
  1 27  1  0  0  0  0
  1 28  1  0  0  0  0
  2 10  1  0  0  0  0
  2  3  2  0  0  0  0
  3  4  1  0  0  0  0
  3 22  1  0  0  0  0
  4  9  2  0  0  0  0
  4  5  1  0  0  0  0
  5  6  2  0  0  0  0
  5 29  1  0  0  0  0
  6  7  1  0  0  0  0
  6 20  1  0  0  0  0
  7  8  2  0  0  0  0
  7 30  1  0  0  0  0
  8  9  1  0  0  0  0
  8 31  1  0  0  0  0
  9 10  1  0  0  0  0
 10 11  1  0  0  0  0
 11 12  2  0  0  0  0
 11 13  1  0  0  0  0
 13 18  2  0  0  0  0
 13 14  1  0  0  0  0
 14 15  2  0  0  0  0
 14 32  1  0  0  0  0
 15 16  1  0  0  0  0
 15 33  1  0  0  0  0
 16 17  2  0  0  0  0
 16 19  1  0  0  0  0
 17 18  1  0  0  0  0
 17 34  1  0  0  0  0
 18 35  1  0  0  0  0
 20 21  1  0  0  0  0
 21 36  1  0  0  0  0
 21 37  1  0  0  0  0
 21 38  1  0  0  0  0
 22 23  1  0  0  0  0
 22 39  1  0  0  0  0
 22 40  1  0  0  0  0
 23 24  2  0  0  0  0
 23 25  1  0  0  0  0
M  END
$$$$
