ZINC03872605
 OpenBabel08292219463D

 44 44  0  0  0  0  0  0  0  0999 V2000
    1.5696   -2.0606    4.2039 C   0  0  0  0  0  0  0  0  0  0  0  0
    1.0932   -2.4007    2.9002 O   0  0  0  0  0  0  0  0  0  0  0  0
   -0.2019   -3.0045    2.8939 C   0  0  0  0  0  0  0  0  0  0  0  0
   -0.6084   -3.3244    1.4540 C   0  0  0  0  0  0  0  0  0  0  0  0
   -1.9951   -3.9710    1.4472 C   0  0  0  0  0  0  0  0  0  0  0  0
   -2.4016   -4.2909    0.0073 C   0  0  0  0  0  0  0  0  0  0  0  0
   -3.7132   -5.0330    0.0087 C   0  0  0  0  0  0  0  0  0  0  0  0
   -4.8270   -4.3777   -0.0431 N   0  0  0  0  0  0  0  0  0  0  0  0
   -4.8142   -2.9720   -0.2127 O   0  0  0  0  0  0  0  0  0  0  0  0
   -6.1140   -2.3795   -0.2524 C   0  0  0  0  0  0  0  0  0  0  0  0
   -5.9794   -0.8667   -0.4379 C   0  0  0  0  0  0  0  0  0  0  0  0
   -5.3838   -0.5855   -1.7510 N   0  3  0  0  0  0  0  0  0  0  0  0
   -3.7266   -6.5082    0.0692 C   0  0  0  0  0  0  0  0  0  0  0  0
   -2.5263   -7.2184    0.1309 C   0  0  0  0  0  0  0  0  0  0  0  0
   -2.5461   -8.5966    0.1872 C   0  0  0  0  0  0  0  0  0  0  0  0
   -3.7518   -9.2751    0.1821 C   0  0  0  0  0  0  0  0  0  0  0  0
   -4.9451   -8.5775    0.1206 C   0  0  0  0  0  0  0  0  0  0  0  0
   -4.9399   -7.1988    0.0706 C   0  0  0  0  0  0  0  0  0  0  0  0
   -3.7656  -10.7808    0.2433 C   0  0  0  0  0  0  0  0  0  0  0  0
   -3.8057  -11.1928    1.5796 F   0  0  0  0  0  0  0  0  0  0  0  0
   -4.8937  -11.2645   -0.4280 F   0  0  0  0  0  0  0  0  0  0  0  0
   -2.6101  -11.2827   -0.3650 F   0  0  0  0  0  0  0  0  0  0  0  0
    2.5577   -1.6077    4.1229 H   0  0  0  0  0  0  0  0  0  0  0  0
    0.8827   -1.3533    4.6686 H   0  0  0  0  0  0  0  0  0  0  0  0
    1.6317   -2.9614    4.8144 H   0  0  0  0  0  0  0  0  0  0  0  0
   -0.1765   -3.9249    3.4773 H   0  0  0  0  0  0  0  0  0  0  0  0
   -0.9256   -2.3168    3.3315 H   0  0  0  0  0  0  0  0  0  0  0  0
   -0.6338   -2.4040    0.8706 H   0  0  0  0  0  0  0  0  0  0  0  0
    0.1153   -4.0121    1.0164 H   0  0  0  0  0  0  0  0  0  0  0  0
   -1.9697   -4.8914    2.0306 H   0  0  0  0  0  0  0  0  0  0  0  0
   -2.7187   -3.2833    1.8848 H   0  0  0  0  0  0  0  0  0  0  0  0
   -2.5097   -3.3630   -0.5544 H   0  0  0  0  0  0  0  0  0  0  0  0
   -1.6344   -4.9098   -0.4579 H   0  0  0  0  0  0  0  0  0  0  0  0
   -6.6791   -2.7988   -1.0848 H   0  0  0  0  0  0  0  0  0  0  0  0
   -6.6361   -2.5860    0.6818 H   0  0  0  0  0  0  0  0  0  0  0  0
   -6.9648   -0.4044   -0.3794 H   0  0  0  0  0  0  0  0  0  0  0  0
   -5.3401   -0.4600    0.3456 H   0  0  0  0  0  0  0  0  0  0  0  0
   -5.2951    0.4121   -1.8733 H   0  0  0  0  0  0  0  0  0  0  0  0
   -4.4717   -1.0134   -1.8052 H   0  0  0  0  0  0  0  0  0  0  0  0
   -1.5843   -6.6900    0.1343 H   0  0  0  0  0  0  0  0  0  0  0  0
   -1.6182   -9.1473    0.2350 H   0  0  0  0  0  0  0  0  0  0  0  0
   -5.8828   -9.1133    0.1162 H   0  0  0  0  0  0  0  0  0  0  0  0
   -5.8722   -6.6553    0.0279 H   0  0  0  0  0  0  0  0  0  0  0  0
   -5.9756   -0.9620   -2.4764 H   0  0  0  0  0  0  0  0  0  0  0  0
  1  2  1  0  0  0  0
  1 23  1  0  0  0  0
  1 24  1  0  0  0  0
  1 25  1  0  0  0  0
  2  3  1  0  0  0  0
  3  4  1  0  0  0  0
  3 26  1  0  0  0  0
  3 27  1  0  0  0  0
  4  5  1  0  0  0  0
  4 28  1  0  0  0  0
  4 29  1  0  0  0  0
  5  6  1  0  0  0  0
  5 30  1  0  0  0  0
  5 31  1  0  0  0  0
  6  7  1  0  0  0  0
  6 32  1  0  0  0  0
  6 33  1  0  0  0  0
  7  8  2  0  0  0  0
  7 13  1  0  0  0  0
  8  9  1  0  0  0  0
  9 10  1  0  0  0  0
 10 11  1  0  0  0  0
 10 34  1  0  0  0  0
 10 35  1  0  0  0  0
 11 12  1  0  0  0  0
 11 36  1  0  0  0  0
 11 37  1  0  0  0  0
 12 38  1  0  0  0  0
 12 39  1  0  0  0  0
 12 44  1  0  0  0  0
 13 18  2  0  0  0  0
 13 14  1  0  0  0  0
 14 15  2  0  0  0  0
 14 40  1  0  0  0  0
 15 16  1  0  0  0  0
 15 41  1  0  0  0  0
 16 17  2  0  0  0  0
 16 19  1  0  0  0  0
 17 18  1  0  0  0  0
 17 42  1  0  0  0  0
 18 43  1  0  0  0  0
 19 20  1  0  0  0  0
 19 21  1  0  0  0  0
 19 22  1  0  0  0  0
M  CHG  1  12   1
M  END
$$$$
