ZINC00000346
 OpenBabel08292219463D

 51 53  0  0  1  0  0  0  0  0999 V2000
    1.4244    1.6886   -1.5887 C   0  0  0  0  0  0  0  0  0  0  0  0
    1.1814    0.2517   -1.4042 N   0  3  0  0  0  0  0  0  0  0  0  0
    2.0272   -0.5181   -2.3348 C   0  0  0  0  0  0  0  0  0  0  0  0
    2.9556   -1.4066   -1.4804 C   0  0  0  0  0  0  0  0  0  0  0  0
    2.9783   -0.6746   -0.1127 C   0  0  1  0  0  0  0  0  0  0  0  0
    3.6979    0.1441   -0.1199 H   0  0  0  0  0  0  0  0  0  0  0  0
    1.5281   -0.1381   -0.0208 C   0  0  0  0  0  0  0  0  0  0  0  0
    3.2558   -1.5870    0.9516 O   0  0  0  0  0  0  0  0  0  0  0  0
    4.5430   -1.7481    1.2962 C   0  0  0  0  0  0  0  0  0  0  0  0
    5.4057   -1.1348    0.7134 O   0  0  0  0  0  0  0  0  0  0  0  0
    4.9123   -2.6938    2.4098 C   0  0  2  0  0  0  0  0  0  0  0  0
    6.2290   -2.2732    3.0102 C   0  0  0  0  0  0  0  0  0  0  0  0
    7.3344   -2.0990    2.1987 C   0  0  0  0  0  0  0  0  0  0  0  0
    8.5422   -1.7132    2.7495 C   0  0  0  0  0  0  0  0  0  0  0  0
    8.6444   -1.5011    4.1116 C   0  0  0  0  0  0  0  0  0  0  0  0
    7.5387   -1.6744    4.9230 C   0  0  0  0  0  0  0  0  0  0  0  0
    6.3299   -2.0561    4.3717 C   0  0  0  0  0  0  0  0  0  0  0  0
    5.0360   -4.1136    1.8532 C   0  0  0  0  0  0  0  0  0  0  0  0
    5.9787   -4.1413    0.6245 C   0  0  0  0  0  0  0  0  0  0  0  0
    5.5417   -5.3961   -0.1594 C   0  0  0  0  0  0  0  0  0  0  0  0
    4.0846   -5.6813    0.2445 C   0  0  0  0  0  0  0  0  0  0  0  0
    3.6869   -4.5900    1.2597 C   0  0  0  0  0  0  0  0  0  0  0  0
    3.8984   -2.6635    3.4164 O   0  0  0  0  0  0  0  0  0  0  0  0
   -0.2332   -0.0487   -1.6626 C   0  0  0  0  0  0  0  0  0  0  0  0
    2.4767    1.9057   -1.4048 H   0  0  0  0  0  0  0  0  0  0  0  0
    1.1678    1.9725   -2.6093 H   0  0  0  0  0  0  0  0  0  0  0  0
    0.8091    2.2540   -0.8887 H   0  0  0  0  0  0  0  0  0  0  0  0
    1.4025   -1.1417   -2.9743 H   0  0  0  0  0  0  0  0  0  0  0  0
    2.6224    0.1621   -2.9440 H   0  0  0  0  0  0  0  0  0  0  0  0
    2.5397   -2.4086   -1.3744 H   0  0  0  0  0  0  0  0  0  0  0  0
    3.9554   -1.4469   -1.9126 H   0  0  0  0  0  0  0  0  0  0  0  0
    1.4851    0.7281    0.6395 H   0  0  0  0  0  0  0  0  0  0  0  0
    0.8559   -0.9198    0.3330 H   0  0  0  0  0  0  0  0  0  0  0  0
    7.2546   -2.2647    1.1345 H   0  0  0  0  0  0  0  0  0  0  0  0
    9.4060   -1.5778    2.1156 H   0  0  0  0  0  0  0  0  0  0  0  0
    9.5882   -1.2003    4.5420 H   0  0  0  0  0  0  0  0  0  0  0  0
    7.6186   -1.5090    5.9873 H   0  0  0  0  0  0  0  0  0  0  0  0
    5.4651   -2.1879    5.0051 H   0  0  0  0  0  0  0  0  0  0  0  0
    5.3825   -4.8007    2.6251 H   0  0  0  0  0  0  0  0  0  0  0  0
    5.8418   -3.2459    0.0183 H   0  0  0  0  0  0  0  0  0  0  0  0
    7.0173   -4.2327    0.9426 H   0  0  0  0  0  0  0  0  0  0  0  0
    5.6019   -5.2065   -1.2311 H   0  0  0  0  0  0  0  0  0  0  0  0
    6.1754   -6.2421    0.1067 H   0  0  0  0  0  0  0  0  0  0  0  0
    3.4375   -5.6302   -0.6313 H   0  0  0  0  0  0  0  0  0  0  0  0
    4.0111   -6.6658    0.7066 H   0  0  0  0  0  0  0  0  0  0  0  0
    3.0530   -5.0088    2.0413 H   0  0  0  0  0  0  0  0  0  0  0  0
    3.1799   -3.7670    0.7561 H   0  0  0  0  0  0  0  0  0  0  0  0
    3.7652   -1.7923    3.8143 H   0  0  0  0  0  0  0  0  0  0  0  0
   -0.4867    0.2446   -2.6814 H   0  0  0  0  0  0  0  0  0  0  0  0
   -0.4061   -1.1178   -1.5386 H   0  0  0  0  0  0  0  0  0  0  0  0
   -0.8563    0.5041   -0.9597 H   0  0  0  0  0  0  0  0  0  0  0  0
  1  2  1  0  0  0  0
  1 25  1  0  0  0  0
  1 26  1  0  0  0  0
  1 27  1  0  0  0  0
  2  7  1  0  0  0  0
  2  3  1  0  0  0  0
  2 24  1  0  0  0  0
  3  4  1  0  0  0  0
  3 28  1  0  0  0  0
  3 29  1  0  0  0  0
  4  5  1  0  0  0  0
  4 30  1  0  0  0  0
  4 31  1  0  0  0  0
  5  6  1  6  0  0  0
  5  7  1  0  0  0  0
  5  8  1  0  0  0  0
  7 32  1  0  0  0  0
  7 33  1  0  0  0  0
  8  9  1  0  0  0  0
  9 10  2  0  0  0  0
 11  9  1  6  0  0  0
 11 12  1  0  0  0  0
 11 18  1  0  0  0  0
 11 23  1  0  0  0  0
 12 17  2  0  0  0  0
 12 13  1  0  0  0  0
 13 14  2  0  0  0  0
 13 34  1  0  0  0  0
 14 15  1  0  0  0  0
 14 35  1  0  0  0  0
 15 16  2  0  0  0  0
 15 36  1  0  0  0  0
 16 17  1  0  0  0  0
 16 37  1  0  0  0  0
 17 38  1  0  0  0  0
 18 22  1  0  0  0  0
 18 19  1  0  0  0  0
 18 39  1  0  0  0  0
 19 20  1  0  0  0  0
 19 40  1  0  0  0  0
 19 41  1  0  0  0  0
 20 21  1  0  0  0  0
 20 42  1  0  0  0  0
 20 43  1  0  0  0  0
 21 22  1  0  0  0  0
 21 44  1  0  0  0  0
 21 45  1  0  0  0  0
 22 46  1  0  0  0  0
 22 47  1  0  0  0  0
 23 48  1  0  0  0  0
 24 49  1  0  0  0  0
 24 50  1  0  0  0  0
 24 51  1  0  0  0  0
M  CHG  1   2   1
M  END
$$$$
