ZINC03785276
 OpenBabel08292219463D

 58 57  0  0  0  0  0  0  0  0999 V2000
    0.6141   -0.3404   -2.1688 C   0  0  0  0  0  0  0  0  0  0  0  0
    1.0203   -0.9066   -0.8067 C   0  0  0  0  0  0  0  0  0  0  0  0
    0.5199    0.0038    0.2851 C   0  0  0  0  0  0  0  0  0  0  0  0
   -0.1862   -0.4859    1.2739 C   0  0  0  0  0  0  0  0  0  0  0  0
   -0.3629   -1.9765    1.4078 C   0  0  0  0  0  0  0  0  0  0  0  0
    0.0496   -2.4090    2.7912 C   0  0  0  0  0  0  0  0  0  0  0  0
   -0.7640   -3.1306    3.5217 C   0  0  0  0  0  0  0  0  0  0  0  0
   -2.0409   -3.6635    2.9245 C   0  0  0  0  0  0  0  0  0  0  0  0
   -2.1115   -5.1537    3.1376 C   0  0  0  0  0  0  0  0  0  0  0  0
   -3.1689   -5.6857    3.6989 C   0  0  0  0  0  0  0  0  0  0  0  0
   -4.3832   -4.8368    3.9746 C   0  0  0  0  0  0  0  0  0  0  0  0
   -5.6005   -5.4914    3.3742 C   0  0  0  0  0  0  0  0  0  0  0  0
   -6.6541   -5.7221    4.1178 C   0  0  0  0  0  0  0  0  0  0  0  0
   -6.7126   -5.1912    5.5270 C   0  0  0  0  0  0  0  0  0  0  0  0
   -7.9941   -4.4223    5.7213 C   0  0  0  0  0  0  0  0  0  0  0  0
   -8.8217   -4.7600    6.6790 C   0  0  0  0  0  0  0  0  0  0  0  0
   -8.5850   -6.0208    7.4698 C   0  0  0  0  0  0  0  0  0  0  0  0
   -8.4011   -5.6690    8.9474 C   0  0  0  0  0  0  0  0  0  0  0  0
   -8.1607   -6.9490    9.7503 C   0  0  0  0  0  0  0  0  0  0  0  0
   -7.9796   -6.6026   11.2057 C   0  0  0  0  0  0  0  0  0  0  0  0
   -8.0369   -5.4501   11.5640 O   0  0  0  0  0  0  0  0  0  0  0  0
   -7.7547   -7.5743   12.1040 O   0  0  0  0  0  0  0  0  0  0  0  0
   -7.5899   -7.1673   13.4880 C   0  0  0  0  0  0  0  0  0  0  0  0
   -7.3441   -8.4024   14.3570 C   0  0  0  0  0  0  0  0  0  0  0  0
   -0.4723   -0.2702   -2.2237 H   0  0  0  0  0  0  0  0  0  0  0  0
    1.0491    0.6510   -2.2946 H   0  0  0  0  0  0  0  0  0  0  0  0
    0.9760   -0.9989   -2.9585 H   0  0  0  0  0  0  0  0  0  0  0  0
    0.5852   -1.8980   -0.6809 H   0  0  0  0  0  0  0  0  0  0  0  0
    2.1066   -0.9768   -0.7517 H   0  0  0  0  0  0  0  0  0  0  0  0
    0.7435    1.0599    0.2524 H   0  0  0  0  0  0  0  0  0  0  0  0
   -0.6416    0.1786    1.9932 H   0  0  0  0  0  0  0  0  0  0  0  0
   -1.4091   -2.2346    1.2432 H   0  0  0  0  0  0  0  0  0  0  0  0
    0.2570   -2.4837    0.6685 H   0  0  0  0  0  0  0  0  0  0  0  0
    1.0159   -2.1241    3.1804 H   0  0  0  0  0  0  0  0  0  0  0  0
   -0.5195   -3.3437    4.5518 H   0  0  0  0  0  0  0  0  0  0  0  0
   -2.8942   -3.1866    3.4067 H   0  0  0  0  0  0  0  0  0  0  0  0
   -2.0600   -3.4479    1.8562 H   0  0  0  0  0  0  0  0  0  0  0  0
   -1.2905   -5.7830    2.8275 H   0  0  0  0  0  0  0  0  0  0  0  0
   -3.1704   -6.7326    3.9642 H   0  0  0  0  0  0  0  0  0  0  0  0
   -4.5189   -4.7356    5.0514 H   0  0  0  0  0  0  0  0  0  0  0  0
   -4.2452   -3.8505    3.5315 H   0  0  0  0  0  0  0  0  0  0  0  0
   -5.6044   -5.7704    2.3309 H   0  0  0  0  0  0  0  0  0  0  0  0
   -7.4807   -6.2927    3.7210 H   0  0  0  0  0  0  0  0  0  0  0  0
   -6.6778   -6.0231    6.2304 H   0  0  0  0  0  0  0  0  0  0  0  0
   -5.8629   -4.5314    5.7023 H   0  0  0  0  0  0  0  0  0  0  0  0
   -8.2301   -3.5930    5.0711 H   0  0  0  0  0  0  0  0  0  0  0  0
   -9.6737   -4.1348    6.9017 H   0  0  0  0  0  0  0  0  0  0  0  0
   -9.4415   -6.6857    7.3585 H   0  0  0  0  0  0  0  0  0  0  0  0
   -7.6883   -6.5183    7.1005 H   0  0  0  0  0  0  0  0  0  0  0  0
   -7.5446   -5.0041    9.0588 H   0  0  0  0  0  0  0  0  0  0  0  0
   -9.2978   -5.1714    9.3168 H   0  0  0  0  0  0  0  0  0  0  0  0
   -9.0172   -7.6140    9.6390 H   0  0  0  0  0  0  0  0  0  0  0  0
   -7.2640   -7.4466    9.3810 H   0  0  0  0  0  0  0  0  0  0  0  0
   -6.7389   -6.4909   13.5690 H   0  0  0  0  0  0  0  0  0  0  0  0
   -8.4921   -6.6583   13.8270 H   0  0  0  0  0  0  0  0  0  0  0  0
   -8.1950   -9.0788   14.2760 H   0  0  0  0  0  0  0  0  0  0  0  0
   -6.4418   -8.9114   14.0180 H   0  0  0  0  0  0  0  0  0  0  0  0
   -7.2203   -8.0969   15.3959 H   0  0  0  0  0  0  0  0  0  0  0  0
  1  2  1  0  0  0  0
  1 25  1  0  0  0  0
  1 26  1  0  0  0  0
  1 27  1  0  0  0  0
  2  3  1  0  0  0  0
  2 28  1  0  0  0  0
  2 29  1  0  0  0  0
  3  4  2  0  0  0  0
  3 30  1  0  0  0  0
  4  5  1  0  0  0  0
  4 31  1  0  0  0  0
  5  6  1  0  0  0  0
  5 32  1  0  0  0  0
  5 33  1  0  0  0  0
  6  7  2  0  0  0  0
  6 34  1  0  0  0  0
  7  8  1  0  0  0  0
  7 35  1  0  0  0  0
  8  9  1  0  0  0  0
  8 36  1  0  0  0  0
  8 37  1  0  0  0  0
  9 10  2  0  0  0  0
  9 38  1  0  0  0  0
 10 11  1  0  0  0  0
 10 39  1  0  0  0  0
 11 12  1  0  0  0  0
 11 40  1  0  0  0  0
 11 41  1  0  0  0  0
 12 13  2  0  0  0  0
 12 42  1  0  0  0  0
 13 14  1  0  0  0  0
 13 43  1  0  0  0  0
 14 15  1  0  0  0  0
 14 44  1  0  0  0  0
 14 45  1  0  0  0  0
 15 16  2  0  0  0  0
 15 46  1  0  0  0  0
 16 17  1  0  0  0  0
 16 47  1  0  0  0  0
 17 18  1  0  0  0  0
 17 48  1  0  0  0  0
 17 49  1  0  0  0  0
 18 19  1  0  0  0  0
 18 50  1  0  0  0  0
 18 51  1  0  0  0  0
 19 20  1  0  0  0  0
 19 52  1  0  0  0  0
 19 53  1  0  0  0  0
 20 21  2  0  0  0  0
 20 22  1  0  0  0  0
 22 23  1  0  0  0  0
 23 24  1  0  0  0  0
 23 54  1  0  0  0  0
 23 55  1  0  0  0  0
 24 56  1  0  0  0  0
 24 57  1  0  0  0  0
 24 58  1  0  0  0  0
M  END
$$$$
