ZINC03938704
 OpenBabel08292219463D

 69 73  0  0  1  0  0  0  0  0999 V2000
    1.2567    3.4625   -5.4043 C   0  0  0  0  0  0  0  0  0  0  0  0
    0.4415    2.6871   -4.3675 C   0  0  1  0  0  0  0  0  0  0  0  0
    0.0377    1.7836   -4.8244 H   0  0  0  0  0  0  0  0  0  0  0  0
    1.3433    2.3049   -3.1909 C   0  0  1  0  0  0  0  0  0  0  0  0
    1.7797    3.2055   -2.7589 H   0  0  0  0  0  0  0  0  0  0  0  0
    0.5070    1.5820   -2.1305 C   0  0  2  0  0  0  0  0  0  0  0  0
    0.1123    0.6552   -2.5469 H   0  0  0  0  0  0  0  0  0  0  0  0
   -0.6516    2.4888   -1.7044 C   0  0  0  0  0  0  0  0  0  0  0  0
   -1.4764    2.8639   -2.9384 C   0  0  1  0  0  0  0  0  0  0  0  0
   -2.2772    3.5437   -2.6476 H   0  0  0  0  0  0  0  0  0  0  0  0
   -0.6322    3.5044   -3.8972 O   0  0  0  0  0  0  0  0  0  0  0  0
   -2.0391    1.6826   -3.5128 O   0  0  0  0  0  0  0  0  0  0  0  0
   -3.0578    1.9362   -4.4824 C   0  0  1  0  0  0  0  0  0  0  0  0
   -3.5166    2.9033   -4.2766 H   0  0  0  0  0  0  0  0  0  0  0  0
   -2.4315    1.9635   -5.8748 C   0  0  0  0  0  0  0  0  0  0  0  0
   -3.5611    2.0187   -6.9102 C   0  0  1  0  0  0  0  0  0  0  0  0
   -4.2823    0.6728   -6.9057 C   0  0  0  0  0  0  0  0  0  0  0  0
   -4.6723    0.2831   -5.5030 C   0  0  0  0  0  0  0  0  0  0  0  0
   -4.1081    0.8590   -4.3926 C   0  0  0  0  0  0  0  0  0  0  0  0
   -4.5048    0.4516   -3.1120 C   0  0  0  0  0  0  0  0  0  0  0  0
   -5.4738   -0.5364   -2.9515 C   0  0  0  0  0  0  0  0  0  0  0  0
   -6.0549   -1.1267   -4.0919 C   0  0  0  0  0  0  0  0  0  0  0  0
   -5.6491   -0.7110   -5.3587 C   0  0  0  0  0  0  0  0  0  0  0  0
   -6.2040   -1.2735   -6.4609 O   0  0  0  0  0  0  0  0  0  0  0  0
   -7.0801   -2.1733   -3.9394 C   0  0  0  0  0  0  0  0  0  0  0  0
   -7.5810   -2.6834   -4.9228 O   0  0  0  0  0  0  0  0  0  0  0  0
   -7.4997   -2.6008   -2.5884 C   0  0  0  0  0  0  0  0  0  0  0  0
   -8.4682   -3.5873   -2.4341 C   0  0  0  0  0  0  0  0  0  0  0  0
   -8.8590   -3.9834   -1.1655 C   0  0  0  0  0  0  0  0  0  0  0  0
   -8.2949   -3.4069   -0.0457 C   0  0  0  0  0  0  0  0  0  0  0  0
   -7.3240   -2.4189   -0.1767 C   0  0  0  0  0  0  0  0  0  0  0  0
   -6.9195   -2.0092   -1.4510 C   0  0  0  0  0  0  0  0  0  0  0  0
   -5.8919   -0.9636   -1.6046 C   0  0  0  0  0  0  0  0  0  0  0  0
   -5.3901   -0.4538   -0.6210 O   0  0  0  0  0  0  0  0  0  0  0  0
   -6.7728   -1.8553    0.9266 O   0  0  0  0  0  0  0  0  0  0  0  0
   -7.2355   -2.3243    2.1946 C   0  0  0  0  0  0  0  0  0  0  0  0
   -3.9408    1.0241   -2.0195 O   0  0  0  0  0  0  0  0  0  0  0  0
   -4.5294    3.1150   -6.5472 C   0  0  0  0  0  0  0  0  0  0  0  0
   -5.5187    2.8582   -5.9041 O   0  0  0  0  0  0  0  0  0  0  0  0
   -4.2631    4.5316   -6.9869 C   0  0  0  0  0  0  0  0  0  0  0  0
   -5.3160    5.3798   -6.5243 O   0  0  0  0  0  0  0  0  0  0  0  0
   -3.0151    2.2683   -8.2070 O   0  0  0  0  0  0  0  0  0  0  0  0
    2.3849    1.4403   -3.6486 O   0  0  0  0  0  0  0  0  0  0  0  0
    2.0763    2.8393   -5.7622 H   0  0  0  0  0  0  0  0  0  0  0  0
    0.6145    3.7345   -6.2420 H   0  0  0  0  0  0  0  0  0  0  0  0
    1.6602    4.3662   -4.9474 H   0  0  0  0  0  0  0  0  0  0  0  0
   -1.2838    1.9608   -0.9904 H   0  0  0  0  0  0  0  0  0  0  0  0
   -0.2555    3.3931   -1.2424 H   0  0  0  0  0  0  0  0  0  0  0  0
   -1.7976    2.8445   -5.9753 H   0  0  0  0  0  0  0  0  0  0  0  0
   -1.8367    1.0629   -6.0277 H   0  0  0  0  0  0  0  0  0  0  0  0
   -3.6225   -0.0896   -7.3200 H   0  0  0  0  0  0  0  0  0  0  0  0
   -5.1790    0.7437   -7.5213 H   0  0  0  0  0  0  0  0  0  0  0  0
   -5.7350   -2.0559   -6.7817 H   0  0  0  0  0  0  0  0  0  0  0  0
   -8.9160   -4.0446   -3.3040 H   0  0  0  0  0  0  0  0  0  0  0  0
   -9.6118   -4.7495   -1.0519 H   0  0  0  0  0  0  0  0  0  0  0  0
   -8.6087   -3.7245    0.9378 H   0  0  0  0  0  0  0  0  0  0  0  0
   -8.3075   -2.1457    2.2790 H   0  0  0  0  0  0  0  0  0  0  0  0
   -7.0373   -3.3926    2.2813 H   0  0  0  0  0  0  0  0  0  0  0  0
   -6.7148   -1.7923    2.9908 H   0  0  0  0  0  0  0  0  0  0  0  0
   -4.3626    1.8504   -1.7465 H   0  0  0  0  0  0  0  0  0  0  0  0
   -3.3928    4.8414   -6.6040 H   0  0  0  0  0  0  0  0  0  0  0  0
   -4.2160    4.5715   -8.0752 H   0  0  0  0  0  0  0  0  0  0  0  0
   -5.2101    6.3087   -6.7714 H   0  0  0  0  0  0  0  0  0  0  0  0
   -3.6756    2.2985   -8.9126 H   0  0  0  0  0  0  0  0  0  0  0  0
    0.8175    0.8008   -0.2512 H   0  0  0  0  0  0  0  0  0  0  0  0
    2.1581    0.7406   -1.2336 H   0  0  0  0  0  0  0  0  0  0  0  0
    2.9550    1.8342   -4.3231 H   0  0  0  0  0  0  0  0  0  0  0  0
    1.3539    1.3017   -0.9577 N   0  3  0  0  0  0  0  0  0  0  0  0
    1.6847    2.1888   -0.5605 H   0  0  0  0  0  0  0  0  0  0  0  0
  1  2  1  0  0  0  0
  1 44  1  0  0  0  0
  1 45  1  0  0  0  0
  1 46  1  0  0  0  0
  2  3  1  6  0  0  0
  2 11  1  0  0  0  0
  2  4  1  0  0  0  0
  4  5  1  1  0  0  0
  4  6  1  0  0  0  0
  4 43  1  0  0  0  0
  6  7  1  6  0  0  0
  6  8  1  0  0  0  0
  6 68  1  0  0  0  0
  8  9  1  0  0  0  0
  8 47  1  0  0  0  0
  8 48  1  0  0  0  0
  9 10  1  1  0  0  0
  9 11  1  0  0  0  0
  9 12  1  0  0  0  0
 12 13  1  0  0  0  0
 13 14  1  1  0  0  0
 13 19  1  0  0  0  0
 13 15  1  0  0  0  0
 15 16  1  0  0  0  0
 15 49  1  0  0  0  0
 15 50  1  0  0  0  0
 16 17  1  0  0  0  0
 16 38  1  1  0  0  0
 16 42  1  0  0  0  0
 17 18  1  0  0  0  0
 17 51  1  0  0  0  0
 17 52  1  0  0  0  0
 18 23  2  0  0  0  0
 18 19  1  0  0  0  0
 19 20  2  0  0  0  0
 20 21  1  0  0  0  0
 20 37  1  0  0  0  0
 21 33  1  0  0  0  0
 21 22  2  0  0  0  0
 22 23  1  0  0  0  0
 22 25  1  0  0  0  0
 23 24  1  0  0  0  0
 24 53  1  0  0  0  0
 25 26  2  0  0  0  0
 25 27  1  0  0  0  0
 27 32  2  0  0  0  0
 27 28  1  0  0  0  0
 28 29  2  0  0  0  0
 28 54  1  0  0  0  0
 29 30  1  0  0  0  0
 29 55  1  0  0  0  0
 30 31  2  0  0  0  0
 30 56  1  0  0  0  0
 31 32  1  0  0  0  0
 31 35  1  0  0  0  0
 32 33  1  0  0  0  0
 33 34  2  0  0  0  0
 35 36  1  0  0  0  0
 36 57  1  0  0  0  0
 36 58  1  0  0  0  0
 36 59  1  0  0  0  0
 37 60  1  0  0  0  0
 38 39  2  0  0  0  0
 38 40  1  0  0  0  0
 40 41  1  0  0  0  0
 40 61  1  0  0  0  0
 40 62  1  0  0  0  0
 41 63  1  0  0  0  0
 42 64  1  0  0  0  0
 43 67  1  0  0  0  0
 65 68  1  0  0  0  0
 66 68  1  0  0  0  0
 68 69  1  0  0  0  0
M  CHG  1  68   1
M  END
$$$$
