ZINC01530817
 OpenBabel08292219463D

 37 37  0  0  1  0  0  0  0  0999 V2000
   -0.0212    1.5282   -0.0309 C   0  0  0  0  0  0  0  0  0  0  0  0
    0.0001   -0.0017   -0.0274 C   0  0  0  0  0  0  0  0  0  0  0  0
   -1.4351   -0.5317   -0.0150 C   0  0  0  0  0  0  0  0  0  0  0  0
   -1.4146   -2.0006   -0.0116 N   0  3  0  0  0  0  0  0  0  0  0  0
   -2.7926   -2.5095    0.0003 C   0  0  2  0  0  0  0  0  0  0  0  0
   -3.3441   -2.0844   -0.8384 H   0  0  0  0  0  0  0  0  0  0  0  0
   -3.4721   -2.1111    1.3119 C   0  0  0  0  0  0  0  0  0  0  0  0
   -2.7744   -4.0115   -0.1201 C   0  0  0  0  0  0  0  0  0  0  0  0
   -1.7176   -4.6002   -0.2072 O   0  0  0  0  0  0  0  0  0  0  0  0
   -3.9326   -4.7008   -0.1309 N   0  0  0  0  0  0  0  0  0  0  0  0
   -3.9230   -6.0814   -0.3583 C   0  0  0  0  0  0  0  0  0  0  0  0
   -2.8753   -6.6639   -1.0598 C   0  0  0  0  0  0  0  0  0  0  0  0
   -2.8688   -8.0267   -1.2826 C   0  0  0  0  0  0  0  0  0  0  0  0
   -3.9043   -8.8114   -0.8082 C   0  0  0  0  0  0  0  0  0  0  0  0
   -4.9488   -8.2345   -0.1099 C   0  0  0  0  0  0  0  0  0  0  0  0
   -4.9579   -6.8728    0.1220 C   0  0  0  0  0  0  0  0  0  0  0  0
   -6.0932   -6.2458    0.8895 C   0  0  0  0  0  0  0  0  0  0  0  0
    1.0012    1.9058   -0.0397 H   0  0  0  0  0  0  0  0  0  0  0  0
   -0.5469    1.8822   -0.9177 H   0  0  0  0  0  0  0  0  0  0  0  0
   -0.5332    1.8865    0.8622 H   0  0  0  0  0  0  0  0  0  0  0  0
    0.5121   -0.3600   -0.9204 H   0  0  0  0  0  0  0  0  0  0  0  0
    0.5258   -0.3557    0.8595 H   0  0  0  0  0  0  0  0  0  0  0  0
   -1.9471   -0.1734    0.8781 H   0  0  0  0  0  0  0  0  0  0  0  0
   -1.9608   -0.1777   -0.9018 H   0  0  0  0  0  0  0  0  0  0  0  0
   -0.9407   -2.3322   -0.8383 H   0  0  0  0  0  0  0  0  0  0  0  0
   -2.9206   -2.5361    2.1505 H   0  0  0  0  0  0  0  0  0  0  0  0
   -3.4853   -1.0246    1.3990 H   0  0  0  0  0  0  0  0  0  0  0  0
   -4.4946   -2.4887    1.3207 H   0  0  0  0  0  0  0  0  0  0  0  0
   -4.7728   -4.2397    0.0188 H   0  0  0  0  0  0  0  0  0  0  0  0
   -2.0668   -6.0516   -1.4311 H   0  0  0  0  0  0  0  0  0  0  0  0
   -2.0545   -8.4803   -1.8280 H   0  0  0  0  0  0  0  0  0  0  0  0
   -3.8970   -9.8770   -0.9840 H   0  0  0  0  0  0  0  0  0  0  0  0
   -5.7561   -8.8499    0.2589 H   0  0  0  0  0  0  0  0  0  0  0  0
   -6.8823   -5.9533    0.1968 H   0  0  0  0  0  0  0  0  0  0  0  0
   -6.4878   -6.9653    1.6069 H   0  0  0  0  0  0  0  0  0  0  0  0
   -5.7306   -5.3654    1.4200 H   0  0  0  0  0  0  0  0  0  0  0  0
   -0.9280   -2.3282    0.8093 H   0  0  0  0  0  0  0  0  0  0  0  0
  1  2  1  0  0  0  0
  1 18  1  0  0  0  0
  1 19  1  0  0  0  0
  1 20  1  0  0  0  0
  2  3  1  0  0  0  0
  2 21  1  0  0  0  0
  2 22  1  0  0  0  0
  3  4  1  0  0  0  0
  3 23  1  0  0  0  0
  3 24  1  0  0  0  0
  4  5  1  0  0  0  0
  4 25  1  0  0  0  0
  4 37  1  0  0  0  0
  5  6  1  6  0  0  0
  5  7  1  0  0  0  0
  5  8  1  0  0  0  0
  7 26  1  0  0  0  0
  7 27  1  0  0  0  0
  7 28  1  0  0  0  0
  8  9  2  0  0  0  0
  8 10  1  0  0  0  0
 10 11  1  0  0  0  0
 10 29  1  0  0  0  0
 11 16  2  0  0  0  0
 11 12  1  0  0  0  0
 12 13  2  0  0  0  0
 12 30  1  0  0  0  0
 13 14  1  0  0  0  0
 13 31  1  0  0  0  0
 14 15  2  0  0  0  0
 14 32  1  0  0  0  0
 15 16  1  0  0  0  0
 15 33  1  0  0  0  0
 16 17  1  0  0  0  0
 17 34  1  0  0  0  0
 17 35  1  0  0  0  0
 17 36  1  0  0  0  0
M  CHG  1   4   1
M  END
$$$$
