ZINC01530659
 OpenBabel08292219463D

 29 29  0  0  0  0  0  0  0  0999 V2000
   -0.3126   -2.0100    1.4443 C   0  0  0  0  0  0  0  0  0  0  0  0
   -0.1355   -0.4930    1.4348 C   0  0  0  0  0  0  0  0  0  0  0  0
   -0.0912   -0.0019    0.0473 N   0  0  0  0  0  0  0  0  0  0  0  0
    1.2259   -0.6952   -0.7558 P   0  0  1  0  0  0  0  0  0  0  0  0
    2.4862   -0.0794   -0.2838 O   0  0  0  0  0  0  0  0  0  0  0  0
    1.2171   -2.2782   -0.4022 O   0  0  0  0  0  0  0  0  0  0  0  0
    0.9588   -2.7014    0.9487 C   0  0  0  0  0  0  0  0  0  0  0  0
    1.0652   -0.4769   -2.4168 N   0  0  0  0  0  0  0  0  0  0  0  0
    2.1987   -1.0713   -3.1379 C   0  0  0  0  0  0  0  0  0  0  0  0
    1.6800   -1.8607   -4.3415 C   0  0  0  0  0  0  0  0  0  0  0  0
    3.0711   -2.5902   -5.2266 Cl  0  0  0  0  0  0  0  0  0  0  0  0
   -0.0178    1.4648    0.0101 C   0  0  0  0  0  0  0  0  0  0  0  0
   -1.0812    2.0523    0.9401 C   0  0  0  0  0  0  0  0  0  0  0  0
   -1.1034    3.8471    0.7695 Cl  0  0  0  0  0  0  0  0  0  0  0  0
   -0.5290   -2.3404    2.4602 H   0  0  0  0  0  0  0  0  0  0  0  0
   -1.1447   -2.2790    0.7937 H   0  0  0  0  0  0  0  0  0  0  0  0
    0.7947   -0.2339    1.9404 H   0  0  0  0  0  0  0  0  0  0  0  0
   -0.9725   -0.0289    1.9565 H   0  0  0  0  0  0  0  0  0  0  0  0
    1.7984   -2.4233    1.5858 H   0  0  0  0  0  0  0  0  0  0  0  0
    0.8205   -3.7823    0.9732 H   0  0  0  0  0  0  0  0  0  0  0  0
    0.9641    0.5007   -2.6450 H   0  0  0  0  0  0  0  0  0  0  0  0
    2.8653   -0.2805   -3.4821 H   0  0  0  0  0  0  0  0  0  0  0  0
    2.7426   -1.7406   -2.4715 H   0  0  0  0  0  0  0  0  0  0  0  0
    1.0134   -2.6515   -3.9974 H   0  0  0  0  0  0  0  0  0  0  0  0
    1.1360   -1.1914   -5.0080 H   0  0  0  0  0  0  0  0  0  0  0  0
    0.9702    1.7876    0.3381 H   0  0  0  0  0  0  0  0  0  0  0  0
   -0.1940    1.8116   -1.0081 H   0  0  0  0  0  0  0  0  0  0  0  0
   -2.0587    1.6500    0.6744 H   0  0  0  0  0  0  0  0  0  0  0  0
   -0.8478    1.7883    1.9716 H   0  0  0  0  0  0  0  0  0  0  0  0
  1  7  1  0  0  0  0
  1  2  1  0  0  0  0
  1 15  1  0  0  0  0
  1 16  1  0  0  0  0
  2  3  1  0  0  0  0
  2 17  1  0  0  0  0
  2 18  1  0  0  0  0
  3  4  1  0  0  0  0
  3 12  1  0  0  0  0
  4  5  2  1  0  0  0
  4  6  1  0  0  0  0
  4  8  1  0  0  0  0
  6  7  1  0  0  0  0
  7 19  1  0  0  0  0
  7 20  1  0  0  0  0
  8  9  1  0  0  0  0
  8 21  1  0  0  0  0
  9 10  1  0  0  0  0
  9 22  1  0  0  0  0
  9 23  1  0  0  0  0
 10 11  1  0  0  0  0
 10 24  1  0  0  0  0
 10 25  1  0  0  0  0
 12 13  1  0  0  0  0
 12 26  1  0  0  0  0
 12 27  1  0  0  0  0
 13 14  1  0  0  0  0
 13 28  1  0  0  0  0
 13 29  1  0  0  0  0
M  END
$$$$
