ZINC00538564
 OpenBabel08292219463D

 43 44  0  0  1  0  0  0  0  0999 V2000
   -0.0322    1.5192    0.0160 C   0  0  0  0  0  0  0  0  0  0  0  0
    0.0002   -0.0104    0.0036 C   0  0  2  0  0  0  0  0  0  0  0  0
    0.7455   -0.5148    1.2410 C   0  0  0  0  0  0  0  0  0  0  0  0
   -0.0184    0.1804    2.7322 S   0  0  0  0  0  0  0  0  0  0  0  0
    0.1999    1.5835    2.7852 O   0  0  0  0  0  0  0  0  0  0  0  0
   -1.3216   -0.3572    2.9106 O   0  0  0  0  0  0  0  0  0  0  0  0
    0.9243   -0.4722    4.0702 C   0  0  0  0  0  0  0  0  0  0  0  0
    0.5593   -1.6720    4.6517 C   0  0  0  0  0  0  0  0  0  0  0  0
    1.2981   -2.1851    5.7009 C   0  0  0  0  0  0  0  0  0  0  0  0
    2.4044   -1.4968    6.1695 C   0  0  0  0  0  0  0  0  0  0  0  0
    2.7690   -0.2952    5.5863 C   0  0  0  0  0  0  0  0  0  0  0  0
    2.0317    0.2133    4.5338 C   0  0  0  0  0  0  0  0  0  0  0  0
    3.1271   -1.9972    7.1954 F   0  0  0  0  0  0  0  0  0  0  0  0
    0.7078   -0.4878   -1.2383 C   0  0  0  0  0  0  0  0  0  0  0  0
    1.8909   -0.7516   -1.1987 O   0  0  0  0  0  0  0  0  0  0  0  0
    0.0259   -0.6217   -2.3931 N   0  0  0  0  0  0  0  0  0  0  0  0
    0.6990   -0.9709   -3.5645 C   0  0  0  0  0  0  0  0  0  0  0  0
    1.7763   -1.8495   -3.5101 C   0  0  0  0  0  0  0  0  0  0  0  0
    2.4429   -2.1963   -4.6638 C   0  0  0  0  0  0  0  0  0  0  0  0
    2.0360   -1.6643   -5.8909 C   0  0  0  0  0  0  0  0  0  0  0  0
    0.9534   -0.7820   -5.9416 C   0  0  0  0  0  0  0  0  0  0  0  0
    0.2878   -0.4441   -4.7842 C   0  0  0  0  0  0  0  0  0  0  0  0
    0.5109   -0.2059   -7.2620 C   0  0  0  0  0  0  0  0  0  0  0  0
   -0.5824    0.6427   -7.0576 F   0  0  0  0  0  0  0  0  0  0  0  0
    1.5637    0.5187   -7.8309 F   0  0  0  0  0  0  0  0  0  0  0  0
    0.1405   -1.2443   -8.1232 F   0  0  0  0  0  0  0  0  0  0  0  0
    2.7271   -2.0223   -7.0929 C   0  0  0  0  0  0  0  0  0  0  0  0
    3.2753   -2.3063   -8.0464 N   0  0  0  0  0  0  0  0  0  0  0  0
   -1.3366   -0.5153    0.0141 O   0  0  0  0  0  0  0  0  0  0  0  0
    0.9874    1.9043    0.0081 H   0  0  0  0  0  0  0  0  0  0  0  0
   -0.5632    1.8785   -0.8655 H   0  0  0  0  0  0  0  0  0  0  0  0
   -0.5440    1.8645    0.9143 H   0  0  0  0  0  0  0  0  0  0  0  0
    0.6922   -1.6028    1.2789 H   0  0  0  0  0  0  0  0  0  0  0  0
    1.7889   -0.2038    1.1885 H   0  0  0  0  0  0  0  0  0  0  0  0
   -0.3039   -2.2085    4.2862 H   0  0  0  0  0  0  0  0  0  0  0  0
    1.0126   -3.1223    6.1552 H   0  0  0  0  0  0  0  0  0  0  0  0
    3.6315    0.2427    5.9513 H   0  0  0  0  0  0  0  0  0  0  0  0
    2.3185    1.1484    4.0758 H   0  0  0  0  0  0  0  0  0  0  0  0
   -0.9329   -0.4753   -2.4099 H   0  0  0  0  0  0  0  0  0  0  0  0
    2.0903   -2.2598   -2.5617 H   0  0  0  0  0  0  0  0  0  0  0  0
    3.2793   -2.8781   -4.6208 H   0  0  0  0  0  0  0  0  0  0  0  0
   -0.5516    0.2343   -4.8232 H   0  0  0  0  0  0  0  0  0  0  0  0
   -1.3925   -1.4807    0.0071 H   0  0  0  0  0  0  0  0  0  0  0  0
  1  2  1  0  0  0  0
  1 30  1  0  0  0  0
  1 31  1  0  0  0  0
  1 32  1  0  0  0  0
  2  3  1  0  0  0  0
  2 14  1  6  0  0  0
  2 29  1  0  0  0  0
  3  4  1  0  0  0  0
  3 33  1  0  0  0  0
  3 34  1  0  0  0  0
  4  5  2  0  0  0  0
  4  6  2  0  0  0  0
  4  7  1  0  0  0  0
  7 12  2  0  0  0  0
  7  8  1  0  0  0  0
  8  9  2  0  0  0  0
  8 35  1  0  0  0  0
  9 10  1  0  0  0  0
  9 36  1  0  0  0  0
 10 11  2  0  0  0  0
 10 13  1  0  0  0  0
 11 12  1  0  0  0  0
 11 37  1  0  0  0  0
 12 38  1  0  0  0  0
 14 15  2  0  0  0  0
 14 16  1  0  0  0  0
 16 17  1  0  0  0  0
 16 39  1  0  0  0  0
 17 22  2  0  0  0  0
 17 18  1  0  0  0  0
 18 19  2  0  0  0  0
 18 40  1  0  0  0  0
 19 20  1  0  0  0  0
 19 41  1  0  0  0  0
 20 21  2  0  0  0  0
 20 27  1  0  0  0  0
 21 22  1  0  0  0  0
 21 23  1  0  0  0  0
 22 42  1  0  0  0  0
 23 24  1  0  0  0  0
 23 25  1  0  0  0  0
 23 26  1  0  0  0  0
 27 28  3  0  0  0  0
 29 43  1  0  0  0  0
M  END
$$$$
