ZINC01529266
 OpenBabel08292219463D

 36 35  0  0  0  0  0  0  0  0999 V2000
   -0.0187    1.5258    0.0104 C   0  0  0  0  0  0  0  0  0  0  0  0
    0.0021   -0.0041    0.0020 C   0  0  0  0  0  0  0  0  0  0  0  0
    0.6878   -0.4765   -1.2033 N   0  0  0  0  0  0  0  0  0  0  0  0
    2.1353   -0.7012   -1.1821 C   0  0  0  0  0  0  0  0  0  0  0  0
    2.4212   -2.1448   -0.7635 C   0  0  0  0  0  0  0  0  0  0  0  0
   -0.0130   -0.7045   -2.3317 C   0  0  0  0  0  0  0  0  0  0  0  0
   -1.7046   -0.4419   -2.3566 S   0  0  0  0  0  0  0  0  0  0  0  0
    0.7639   -1.2398   -3.6975 S   0  0  0  0  0  0  0  0  0  0  0  0
   -0.7358   -1.4179   -5.0837 S   0  0  0  0  0  0  0  0  0  0  0  0
   -0.8805    0.1096   -5.7172 C   0  0  0  0  0  0  0  0  0  0  0  0
    0.1306    1.3702   -5.1518 S   0  0  0  0  0  0  0  0  0  0  0  0
   -1.7939    0.3575   -6.6768 N   0  0  0  0  0  0  0  0  0  0  0  0
   -2.6591   -0.7212   -7.1607 C   0  0  0  0  0  0  0  0  0  0  0  0
   -3.9346   -0.7692   -6.3170 C   0  0  0  0  0  0  0  0  0  0  0  0
   -1.9216    1.7055   -7.2359 C   0  0  0  0  0  0  0  0  0  0  0  0
   -0.9917    1.8473   -8.4426 C   0  0  0  0  0  0  0  0  0  0  0  0
    1.0039    1.9031    0.0027 H   0  0  0  0  0  0  0  0  0  0  0  0
   -0.5459    1.8868   -0.8726 H   0  0  0  0  0  0  0  0  0  0  0  0
   -0.5289    1.8773    0.9072 H   0  0  0  0  0  0  0  0  0  0  0  0
    0.5293   -0.3651    0.8851 H   0  0  0  0  0  0  0  0  0  0  0  0
   -1.0205   -0.3814    0.0098 H   0  0  0  0  0  0  0  0  0  0  0  0
    2.5453   -0.5232   -2.1762 H   0  0  0  0  0  0  0  0  0  0  0  0
    2.5986   -0.0180   -0.4703 H   0  0  0  0  0  0  0  0  0  0  0  0
    3.4982   -2.3119   -0.7477 H   0  0  0  0  0  0  0  0  0  0  0  0
    2.0113   -2.3228    0.2307 H   0  0  0  0  0  0  0  0  0  0  0  0
    1.9579   -2.8280   -1.4752 H   0  0  0  0  0  0  0  0  0  0  0  0
   -2.9196   -0.5381   -8.2031 H   0  0  0  0  0  0  0  0  0  0  0  0
   -2.1336   -1.6727   -7.0792 H   0  0  0  0  0  0  0  0  0  0  0  0
   -4.5783   -1.5718   -6.6771 H   0  0  0  0  0  0  0  0  0  0  0  0
   -3.6741   -0.9524   -5.2746 H   0  0  0  0  0  0  0  0  0  0  0  0
   -4.4601    0.1822   -6.3985 H   0  0  0  0  0  0  0  0  0  0  0  0
   -2.9520    1.8727   -7.5496 H   0  0  0  0  0  0  0  0  0  0  0  0
   -1.6486    2.4404   -6.4786 H   0  0  0  0  0  0  0  0  0  0  0  0
    0.0387    1.6802   -8.1289 H   0  0  0  0  0  0  0  0  0  0  0  0
   -1.2647    1.1125   -9.2000 H   0  0  0  0  0  0  0  0  0  0  0  0
   -1.0867    2.8503   -8.8587 H   0  0  0  0  0  0  0  0  0  0  0  0
  1  2  1  0  0  0  0
  1 17  1  0  0  0  0
  1 18  1  0  0  0  0
  1 19  1  0  0  0  0
  2  3  1  0  0  0  0
  2 20  1  0  0  0  0
  2 21  1  0  0  0  0
  3  4  1  0  0  0  0
  3  6  1  0  0  0  0
  4  5  1  0  0  0  0
  4 22  1  0  0  0  0
  4 23  1  0  0  0  0
  5 24  1  0  0  0  0
  5 25  1  0  0  0  0
  5 26  1  0  0  0  0
  6  7  2  0  0  0  0
  6  8  1  0  0  0  0
  8  9  1  0  0  0  0
  9 10  1  0  0  0  0
 10 11  2  0  0  0  0
 10 12  1  0  0  0  0
 12 13  1  0  0  0  0
 12 15  1  0  0  0  0
 13 14  1  0  0  0  0
 13 27  1  0  0  0  0
 13 28  1  0  0  0  0
 14 29  1  0  0  0  0
 14 30  1  0  0  0  0
 14 31  1  0  0  0  0
 15 16  1  0  0  0  0
 15 32  1  0  0  0  0
 15 33  1  0  0  0  0
 16 34  1  0  0  0  0
 16 35  1  0  0  0  0
 16 36  1  0  0  0  0
M  END
$$$$
