ZINC18324776
 OpenBabel08292219463D

 66 69  0  0  0  0  0  0  0  0999 V2000
   -0.0187    1.5258    0.0104 C   0  0  0  0  0  0  0  0  0  0  0  0
    0.0021   -0.0041    0.0020 C   0  0  0  0  0  0  0  0  0  0  0  0
    0.7182   -0.4975   -1.2568 C   0  0  0  0  0  0  0  0  0  0  0  0
    0.7386   -2.0043   -1.2651 C   0  0  0  0  0  0  0  0  0  0  0  0
    1.6787   -2.7529   -0.7375 N   0  0  0  0  0  0  0  0  0  0  0  0
    1.3866   -4.0413   -0.9211 C   0  0  0  0  0  0  0  0  0  0  0  0
    0.1960   -4.0985   -1.6021 C   0  0  0  0  0  0  0  0  0  0  0  0
   -0.2036   -2.7889   -1.8075 N   0  0  0  0  0  0  0  0  0  0  0  0
   -1.4027   -2.5429   -2.4823 N   0  0  0  0  0  0  0  0  0  0  0  0
   -2.1451   -3.5211   -2.9147 C   0  0  0  0  0  0  0  0  0  0  0  0
   -1.8014   -4.8460   -2.7370 N   0  0  0  0  0  0  0  0  0  0  0  0
   -2.3837   -5.5441   -3.0753 H   0  0  0  0  0  0  0  0  0  0  0  0
   -0.6544   -5.1776   -2.1025 C   0  0  0  0  0  0  0  0  0  0  0  0
   -0.3442   -6.3438   -1.9407 O   0  0  0  0  0  0  0  0  0  0  0  0
   -3.4025   -3.2011   -3.6216 C   0  0  0  0  0  0  0  0  0  0  0  0
   -4.2233   -4.2270   -4.0923 C   0  0  0  0  0  0  0  0  0  0  0  0
   -5.3956   -3.9221   -4.7514 C   0  0  0  0  0  0  0  0  0  0  0  0
   -5.7625   -2.6016   -4.9484 C   0  0  0  0  0  0  0  0  0  0  0  0
   -4.9584   -1.5773   -4.4871 C   0  0  0  0  0  0  0  0  0  0  0  0
   -3.7798   -1.8669   -3.8177 C   0  0  0  0  0  0  0  0  0  0  0  0
   -2.9915   -0.8612   -3.3589 O   0  0  0  0  0  0  0  0  0  0  0  0
   -3.4407    0.4746   -3.5956 C   0  0  0  0  0  0  0  0  0  0  0  0
   -2.4300    1.4636   -3.0113 C   0  0  0  0  0  0  0  0  0  0  0  0
   -6.4307   -5.2183   -5.3457 S   0  0  0  0  0  0  0  0  0  0  0  0
   -7.1994   -4.6697   -6.4075 O   0  0  0  0  0  0  0  0  0  0  0  0
   -5.5978   -6.3568   -5.5173 O   0  0  0  0  0  0  0  0  0  0  0  0
   -7.4957   -5.5895   -4.1331 N   0  0  0  0  0  0  0  0  0  0  0  0
   -7.1670   -6.6094   -3.1256 C   0  0  0  0  0  0  0  0  0  0  0  0
   -7.3951   -6.0101   -1.7339 C   0  0  0  0  0  0  0  0  0  0  0  0
   -8.7605   -5.4743   -1.6528 N   0  0  0  0  0  0  0  0  0  0  0  0
   -8.9594   -4.3757   -2.6075 C   0  0  0  0  0  0  0  0  0  0  0  0
   -8.7928   -4.9036   -4.0315 C   0  0  0  0  0  0  0  0  0  0  0  0
   -9.0775   -5.0460   -0.2838 C   0  0  0  0  0  0  0  0  0  0  0  0
  -10.5711   -4.7305   -0.1811 C   0  0  0  0  0  0  0  0  0  0  0  0
    2.2115   -5.2172   -0.4653 C   0  0  0  0  0  0  0  0  0  0  0  0
    1.0039    1.9031    0.0027 H   0  0  0  0  0  0  0  0  0  0  0  0
   -0.5459    1.8868   -0.8726 H   0  0  0  0  0  0  0  0  0  0  0  0
   -0.5289    1.8773    0.9072 H   0  0  0  0  0  0  0  0  0  0  0  0
    0.5293   -0.3651    0.8851 H   0  0  0  0  0  0  0  0  0  0  0  0
   -1.0205   -0.3814    0.0098 H   0  0  0  0  0  0  0  0  0  0  0  0
    0.1910   -0.1364   -2.1398 H   0  0  0  0  0  0  0  0  0  0  0  0
    1.7408   -0.1202   -1.2645 H   0  0  0  0  0  0  0  0  0  0  0  0
   -3.9405   -5.2583   -3.9410 H   0  0  0  0  0  0  0  0  0  0  0  0
   -6.6820   -2.3711   -5.4658 H   0  0  0  0  0  0  0  0  0  0  0  0
   -5.2508   -0.5496   -4.6443 H   0  0  0  0  0  0  0  0  0  0  0  0
   -3.5339    0.6418   -4.6687 H   0  0  0  0  0  0  0  0  0  0  0  0
   -4.4100    0.6217   -3.1194 H   0  0  0  0  0  0  0  0  0  0  0  0
   -2.3368    1.2964   -1.9383 H   0  0  0  0  0  0  0  0  0  0  0  0
   -1.4607    1.3165   -3.4876 H   0  0  0  0  0  0  0  0  0  0  0  0
   -2.7726    2.4825   -3.1919 H   0  0  0  0  0  0  0  0  0  0  0  0
   -7.8113   -7.4781   -3.2603 H   0  0  0  0  0  0  0  0  0  0  0  0
   -6.1229   -6.9045   -3.2305 H   0  0  0  0  0  0  0  0  0  0  0  0
   -7.2628   -6.7844   -0.9782 H   0  0  0  0  0  0  0  0  0  0  0  0
   -6.6785   -5.2070   -1.5617 H   0  0  0  0  0  0  0  0  0  0  0  0
   -9.9616   -3.9647   -2.4854 H   0  0  0  0  0  0  0  0  0  0  0  0
   -8.2210   -3.5954   -2.4231 H   0  0  0  0  0  0  0  0  0  0  0  0
   -8.8232   -4.0716   -4.7350 H   0  0  0  0  0  0  0  0  0  0  0  0
   -9.5965   -5.6053   -4.2549 H   0  0  0  0  0  0  0  0  0  0  0  0
   -8.8260   -5.8445    0.4142 H   0  0  0  0  0  0  0  0  0  0  0  0
   -8.5002   -4.1544   -0.0392 H   0  0  0  0  0  0  0  0  0  0  0  0
  -10.8226   -3.9319   -0.8791 H   0  0  0  0  0  0  0  0  0  0  0  0
  -11.1485   -5.6221   -0.4257 H   0  0  0  0  0  0  0  0  0  0  0  0
  -10.8063   -4.4127    0.8346 H   0  0  0  0  0  0  0  0  0  0  0  0
    1.9006   -5.5126    0.5368 H   0  0  0  0  0  0  0  0  0  0  0  0
    2.0655   -6.0513   -1.1517 H   0  0  0  0  0  0  0  0  0  0  0  0
    3.2651   -4.9383   -0.4514 H   0  0  0  0  0  0  0  0  0  0  0  0
  1  2  1  0  0  0  0
  1 36  1  0  0  0  0
  1 37  1  0  0  0  0
  1 38  1  0  0  0  0
  2  3  1  0  0  0  0
  2 39  1  0  0  0  0
  2 40  1  0  0  0  0
  3  4  1  0  0  0  0
  3 41  1  0  0  0  0
  3 42  1  0  0  0  0
  4  8  1  0  0  0  0
  4  5  2  0  0  0  0
  5  6  1  0  0  0  0
  6  7  2  0  0  0  0
  6 35  1  0  0  0  0
  7 13  1  0  0  0  0
  7  8  1  0  0  0  0
  8  9  1  0  0  0  0
  9 10  2  0  0  0  0
 10 11  1  0  0  0  0
 10 15  1  0  0  0  0
 11 12  1  0  0  0  0
 11 13  1  0  0  0  0
 13 14  2  0  0  0  0
 15 20  2  0  0  0  0
 15 16  1  0  0  0  0
 16 17  2  0  0  0  0
 16 43  1  0  0  0  0
 17 18  1  0  0  0  0
 17 24  1  0  0  0  0
 18 19  2  0  0  0  0
 18 44  1  0  0  0  0
 19 20  1  0  0  0  0
 19 45  1  0  0  0  0
 20 21  1  0  0  0  0
 21 22  1  0  0  0  0
 22 23  1  0  0  0  0
 22 46  1  0  0  0  0
 22 47  1  0  0  0  0
 23 48  1  0  0  0  0
 23 49  1  0  0  0  0
 23 50  1  0  0  0  0
 24 25  2  0  0  0  0
 24 26  2  0  0  0  0
 24 27  1  0  0  0  0
 27 32  1  0  0  0  0
 27 28  1  0  0  0  0
 28 29  1  0  0  0  0
 28 51  1  0  0  0  0
 28 52  1  0  0  0  0
 29 30  1  0  0  0  0
 29 53  1  0  0  0  0
 29 54  1  0  0  0  0
 30 31  1  0  0  0  0
 30 33  1  0  0  0  0
 31 32  1  0  0  0  0
 31 55  1  0  0  0  0
 31 56  1  0  0  0  0
 32 57  1  0  0  0  0
 32 58  1  0  0  0  0
 33 34  1  0  0  0  0
 33 59  1  0  0  0  0
 33 60  1  0  0  0  0
 34 61  1  0  0  0  0
 34 62  1  0  0  0  0
 34 63  1  0  0  0  0
 35 64  1  0  0  0  0
 35 65  1  0  0  0  0
 35 66  1  0  0  0  0
M  END
$$$$
