ZINC03871698
 OpenBabel08292219463D

 39 41  0  0  0  0  0  0  0  0999 V2000
   -0.0167    1.3781    0.0096 C   0  0  0  0  0  0  0  0  0  0  0  0
    1.1709    2.0855    0.0021 C   0  0  0  0  0  0  0  0  0  0  0  0
    2.3773    1.4107   -0.0130 C   0  0  0  0  0  0  0  0  0  0  0  0
    2.3960    0.0285   -0.0201 C   0  0  0  0  0  0  0  0  0  0  0  0
    1.2084   -0.6789   -0.0117 C   0  0  0  0  0  0  0  0  0  0  0  0
    0.0021   -0.0041    0.0020 C   0  0  0  0  0  0  0  0  0  0  0  0
    3.7112   -0.7071   -0.0376 C   0  0  0  0  0  0  0  0  0  0  0  0
    4.2568   -1.0108    1.6656 S   0  0  0  0  0  0  0  0  0  0  0  0
    5.8308   -1.8914    1.4717 C   0  0  0  0  0  0  0  0  0  0  0  0
    6.3997   -2.2085    2.8307 C   0  0  0  0  0  0  0  0  0  0  0  0
    5.7186   -1.8325    3.8509 N   0  0  0  0  0  0  0  0  0  0  0  0
    6.2576   -2.1257    5.3916 S   0  0  0  0  0  0  0  0  0  0  0  0
    5.5693   -3.2791    5.8556 O   0  0  0  0  0  0  0  0  0  0  0  0
    6.2241   -0.8843    6.0823 O   0  0  0  0  0  0  0  0  0  0  0  0
    7.9557   -2.5752    5.2296 C   0  0  0  0  0  0  0  0  0  0  0  0
    8.7868   -2.6089    6.3266 C   0  0  0  0  0  0  0  0  0  0  0  0
   10.1160   -2.9626    6.1718 C   0  0  0  0  0  0  0  0  0  0  0  0
   10.6061   -3.2805    4.9168 C   0  0  0  0  0  0  0  0  0  0  0  0
    9.7736   -3.2483    3.8143 C   0  0  0  0  0  0  0  0  0  0  0  0
    8.4383   -2.8955    3.9650 C   0  0  0  0  0  0  0  0  0  0  0  0
    7.5826   -2.8701    2.8653 N   0  0  0  0  0  2  0  0  0  0  0  0
   12.2745   -3.7212    4.7271 Cl  0  0  0  0  0  0  0  0  0  0  0  0
   11.1845   -3.0075    7.5721 S   0  0  0  0  0  0  0  0  0  0  0  0
   12.3544   -2.2849    7.2137 O   0  0  0  0  0  0  0  0  0  0  0  0
   10.3913   -2.6623    8.6995 O   0  0  0  0  0  0  0  0  0  0  0  0
   11.6478   -4.5832    7.7841 N   0  0  0  0  0  0  0  0  0  0  0  0
   -0.9591    1.9053    0.0259 H   0  0  0  0  0  0  0  0  0  0  0  0
    1.1563    3.1654    0.0076 H   0  0  0  0  0  0  0  0  0  0  0  0
    3.3051    1.9634   -0.0196 H   0  0  0  0  0  0  0  0  0  0  0  0
    1.2231   -1.7588   -0.0176 H   0  0  0  0  0  0  0  0  0  0  0  0
   -0.9258   -0.5567    0.0082 H   0  0  0  0  0  0  0  0  0  0  0  0
    3.5884   -1.6586   -0.5549 H   0  0  0  0  0  0  0  0  0  0  0  0
    4.4573   -0.1052   -0.5563 H   0  0  0  0  0  0  0  0  0  0  0  0
    5.6635   -2.8181    0.9227 H   0  0  0  0  0  0  0  0  0  0  0  0
    6.5324   -1.2646    0.9213 H   0  0  0  0  0  0  0  0  0  0  0  0
    8.4029   -2.3599    7.3049 H   0  0  0  0  0  0  0  0  0  0  0  0
   10.1605   -3.4966    2.8370 H   0  0  0  0  0  0  0  0  0  0  0  0
   11.3230   -5.2696    7.1806 H   0  0  0  0  0  0  0  0  0  0  0  0
   12.2440   -4.8197    8.5118 H   0  0  0  0  0  0  0  0  0  0  0  0
  1  6  2  0  0  0  0
  1  2  1  0  0  0  0
  1 27  1  0  0  0  0
  2  3  2  0  0  0  0
  2 28  1  0  0  0  0
  3  4  1  0  0  0  0
  3 29  1  0  0  0  0
  4  5  2  0  0  0  0
  4  7  1  0  0  0  0
  5  6  1  0  0  0  0
  5 30  1  0  0  0  0
  6 31  1  0  0  0  0
  7  8  1  0  0  0  0
  7 32  1  0  0  0  0
  7 33  1  0  0  0  0
  8  9  1  0  0  0  0
  9 10  1  0  0  0  0
  9 34  1  0  0  0  0
  9 35  1  0  0  0  0
 10 21  1  0  0  0  0
 10 11  2  0  0  0  0
 11 12  1  0  0  0  0
 12 13  2  0  0  0  0
 12 14  2  0  0  0  0
 12 15  1  0  0  0  0
 15 20  2  0  0  0  0
 15 16  1  0  0  0  0
 16 17  2  0  0  0  0
 16 36  1  0  0  0  0
 17 18  1  0  0  0  0
 17 23  1  0  0  0  0
 18 19  2  0  0  0  0
 18 22  1  0  0  0  0
 19 20  1  0  0  0  0
 19 37  1  0  0  0  0
 20 21  1  0  0  0  0
 23 24  2  0  0  0  0
 23 25  2  0  0  0  0
 23 26  1  0  0  0  0
 26 38  1  0  0  0  0
 26 39  1  0  0  0  0
M  END
$$$$
