ZINC03776875
 OpenBabel08292219463D

 12 11  0  0  1  0  0  0  0  0999 V2000
   -0.7330    1.8882    1.2685 C   0  0  1  0  0  0  0  0  0  0  0  0
   -1.7556    1.5109    1.2763 H   0  0  0  0  0  0  0  0  0  0  0  0
   -0.0169    1.3948    0.0097 C   0  0  0  0  0  0  0  0  0  0  0  0
    0.0021   -0.0041    0.0020 F   0  0  0  0  0  0  0  0  0  0  0  0
    1.2956    1.8790   -0.0002 F   0  0  0  0  0  0  0  0  0  0  0  0
   -0.6935    1.8582   -1.1237 F   0  0  0  0  0  0  0  0  0  0  0  0
   -0.0419    1.4148    2.4262 O   0  0  0  0  0  0  0  0  0  0  0  0
   -0.6321    1.8217    3.6624 C   0  0  0  0  0  0  0  0  0  0  0  0
   -0.6484    3.2188    3.7338 F   0  0  0  0  0  0  0  0  0  0  0  0
   -1.9419    1.3357    3.7361 F   0  0  0  0  0  0  0  0  0  0  0  0
   -0.7520    3.2871    1.2762 F   0  0  0  0  0  0  0  0  0  0  0  0
   -0.0491    1.4222    4.4922 H   0  0  0  0  0  0  0  0  0  0  0  0
  1  2  1  1  0  0  0
  1  3  1  0  0  0  0
  1  7  1  0  0  0  0
  1 11  1  0  0  0  0
  3  4  1  0  0  0  0
  3  5  1  0  0  0  0
  3  6  1  0  0  0  0
  7  8  1  0  0  0  0
  8  9  1  0  0  0  0
  8 10  1  0  0  0  0
  8 12  1  0  0  0  0
M  END
$$$$
