ZINC00001382
 OpenBabel08292219463D

 30 30  0  0  0  0  0  0  0  0999 V2000
   -1.1455   -3.1489   -0.7675 C   0  0  0  0  0  0  0  0  0  0  0  0
   -0.6394   -3.1096   -2.2108 C   0  0  0  0  0  0  0  0  0  0  0  0
    0.3933   -2.0212   -2.3516 C   0  0  0  0  0  0  0  0  0  0  0  0
    1.6878   -2.3135   -2.2429 C   0  0  0  0  0  0  0  0  0  0  0  0
   -0.0285   -0.6364   -2.6089 C   0  0  0  0  0  0  0  0  0  0  0  0
    0.8062    0.2320   -2.7799 O   0  0  0  0  0  0  0  0  0  0  0  0
   -1.4639   -0.3000   -2.6598 C   0  0  0  0  0  0  0  0  0  0  0  0
   -2.0702    0.3520   -1.5812 C   0  0  0  0  0  0  0  0  0  0  0  0
   -3.4096    0.6642   -1.6322 C   0  0  0  0  0  0  0  0  0  0  0  0
   -4.1618    0.3324   -2.7539 C   0  0  0  0  0  0  0  0  0  0  0  0
   -3.5652   -0.3162   -3.8293 C   0  0  0  0  0  0  0  0  0  0  0  0
   -2.2218   -0.6271   -3.7898 C   0  0  0  0  0  0  0  0  0  0  0  0
   -1.4748   -1.4300   -5.1356 Cl  0  0  0  0  0  0  0  0  0  0  0  0
   -4.5100   -0.7281   -5.2262 Cl  0  0  0  0  0  0  0  0  0  0  0  0
   -5.4824    0.6423   -2.7987 O   0  0  0  0  0  0  0  0  0  0  0  0
   -6.0316    1.3080   -1.6597 C   0  0  0  0  0  0  0  0  0  0  0  0
   -7.4980    1.5688   -1.8890 C   0  0  0  0  0  0  0  0  0  0  0  0
   -8.0240    1.2172   -2.9312 O   0  0  0  0  0  0  0  0  0  0  0  0
   -8.1584    2.1314   -1.0324 O   0  0  0  0  0  1  0  0  0  0  0  0
   -0.3113   -3.3503   -0.0953 H   0  0  0  0  0  0  0  0  0  0  0  0
   -1.5932   -2.1882   -0.5132 H   0  0  0  0  0  0  0  0  0  0  0  0
   -1.8924   -3.9362   -0.6657 H   0  0  0  0  0  0  0  0  0  0  0  0
   -0.1916   -4.0703   -2.4651 H   0  0  0  0  0  0  0  0  0  0  0  0
   -1.4735   -2.9082   -2.8830 H   0  0  0  0  0  0  0  0  0  0  0  0
    2.4278   -1.5334   -2.3438 H   0  0  0  0  0  0  0  0  0  0  0  0
    1.9976   -3.3307   -2.0539 H   0  0  0  0  0  0  0  0  0  0  0  0
   -1.4879    0.6099   -0.7090 H   0  0  0  0  0  0  0  0  0  0  0  0
   -3.8776    1.1677   -0.7993 H   0  0  0  0  0  0  0  0  0  0  0  0
   -5.9078    0.6802   -0.7773 H   0  0  0  0  0  0  0  0  0  0  0  0
   -5.5136    2.2549   -1.5075 H   0  0  0  0  0  0  0  0  0  0  0  0
  1  2  1  0  0  0  0
  1 20  1  0  0  0  0
  1 21  1  0  0  0  0
  1 22  1  0  0  0  0
  2  3  1  0  0  0  0
  2 23  1  0  0  0  0
  2 24  1  0  0  0  0
  3  4  2  0  0  0  0
  3  5  1  0  0  0  0
  4 25  1  0  0  0  0
  4 26  1  0  0  0  0
  5  6  2  0  0  0  0
  5  7  1  0  0  0  0
  7 12  2  0  0  0  0
  7  8  1  0  0  0  0
  8  9  2  0  0  0  0
  8 27  1  0  0  0  0
  9 10  1  0  0  0  0
  9 28  1  0  0  0  0
 10 11  2  0  0  0  0
 10 15  1  0  0  0  0
 11 12  1  0  0  0  0
 11 14  1  0  0  0  0
 12 13  1  0  0  0  0
 15 16  1  0  0  0  0
 16 17  1  0  0  0  0
 16 29  1  0  0  0  0
 16 30  1  0  0  0  0
 17 18  2  0  0  0  0
 17 19  1  0  0  0  0
M  END
$$$$
