ZINC03802189
 OpenBabel08292219463D

 49 48  0  0  0  0  0  0  0  0999 V2000
    0.6311    1.4271    0.1298 C   0  0  0  0  0  0  0  0  0  0  0  0
    0.5610   -0.0728   -0.1641 C   0  0  0  0  0  0  0  0  0  0  0  0
   -0.8405   -0.5682    0.0835 C   0  0  0  0  0  0  0  0  0  0  0  0
   -1.4692   -1.2459   -0.8448 C   0  0  0  0  0  0  0  0  0  0  0  0
   -0.7390   -1.6705   -2.0928 C   0  0  0  0  0  0  0  0  0  0  0  0
   -0.8969   -3.1567   -2.2860 C   0  0  0  0  0  0  0  0  0  0  0  0
   -1.3277   -3.6263   -3.4306 C   0  0  0  0  0  0  0  0  0  0  0  0
   -1.5102   -2.6992   -4.6046 C   0  0  0  0  0  0  0  0  0  0  0  0
   -0.7540   -3.2374   -5.7919 C   0  0  0  0  0  0  0  0  0  0  0  0
   -1.3680   -3.4098   -6.9362 C   0  0  0  0  0  0  0  0  0  0  0  0
   -2.7777   -2.9089   -7.1179 C   0  0  0  0  0  0  0  0  0  0  0  0
   -2.8476   -2.0231   -8.3634 C   0  0  0  0  0  0  0  0  0  0  0  0
   -4.2788   -1.5146   -8.5479 C   0  0  0  0  0  0  0  0  0  0  0  0
   -4.3488   -0.6288   -9.7934 C   0  0  0  0  0  0  0  0  0  0  0  0
   -5.7800   -0.1203   -9.9778 C   0  0  0  0  0  0  0  0  0  0  0  0
   -5.8499    0.7655  -11.2233 C   0  0  0  0  0  0  0  0  0  0  0  0
   -7.2811    1.2740  -11.4078 C   0  0  0  0  0  0  0  0  0  0  0  0
   -7.3500    2.1465  -12.6346 C   0  0  0  0  0  0  0  0  0  0  0  0
   -6.3474    2.3435  -13.2997 O   0  0  0  0  0  0  0  0  0  0  0  0
   -8.4084    2.6555  -12.9620 O   0  0  0  0  0  1  0  0  0  0  0  0
    1.6448    1.7855   -0.0493 H   0  0  0  0  0  0  0  0  0  0  0  0
   -0.0624    1.9579   -0.5224 H   0  0  0  0  0  0  0  0  0  0  0  0
    0.3609    1.6064    1.1704 H   0  0  0  0  0  0  0  0  0  0  0  0
    0.8313   -0.2521   -1.2048 H   0  0  0  0  0  0  0  0  0  0  0  0
    1.2546   -0.6036    0.4880 H   0  0  0  0  0  0  0  0  0  0  0  0
   -1.3266   -0.3646    1.0262 H   0  0  0  0  0  0  0  0  0  0  0  0
   -2.5109   -1.5002   -0.7156 H   0  0  0  0  0  0  0  0  0  0  0  0
   -1.1546   -1.1461   -2.9532 H   0  0  0  0  0  0  0  0  0  0  0  0
    0.3190   -1.4272   -1.9952 H   0  0  0  0  0  0  0  0  0  0  0  0
   -0.6549   -3.8347   -1.4809 H   0  0  0  0  0  0  0  0  0  0  0  0
   -1.5521   -4.6778   -3.5328 H   0  0  0  0  0  0  0  0  0  0  0  0
   -2.5698   -2.6285   -4.8504 H   0  0  0  0  0  0  0  0  0  0  0  0
   -1.1296   -1.7103   -4.3493 H   0  0  0  0  0  0  0  0  0  0  0  0
    0.2941   -3.4809   -5.6994 H   0  0  0  0  0  0  0  0  0  0  0  0
   -0.8639   -3.9108   -7.7494 H   0  0  0  0  0  0  0  0  0  0  0  0
   -3.4520   -3.7570   -7.2369 H   0  0  0  0  0  0  0  0  0  0  0  0
   -3.0731   -2.3298   -6.2430 H   0  0  0  0  0  0  0  0  0  0  0  0
   -2.1733   -1.1750   -8.2444 H   0  0  0  0  0  0  0  0  0  0  0  0
   -2.5522   -2.6023   -9.2383 H   0  0  0  0  0  0  0  0  0  0  0  0
   -4.9532   -2.3627   -8.6668 H   0  0  0  0  0  0  0  0  0  0  0  0
   -4.5742   -0.9355   -7.6730 H   0  0  0  0  0  0  0  0  0  0  0  0
   -3.6744    0.2193   -9.6744 H   0  0  0  0  0  0  0  0  0  0  0  0
   -4.0534   -1.2080  -10.6682 H   0  0  0  0  0  0  0  0  0  0  0  0
   -6.4543   -0.9684  -10.0968 H   0  0  0  0  0  0  0  0  0  0  0  0
   -6.0754    0.4589   -9.1030 H   0  0  0  0  0  0  0  0  0  0  0  0
   -5.1756    1.6136  -11.1044 H   0  0  0  0  0  0  0  0  0  0  0  0
   -5.5545    0.1864  -12.0982 H   0  0  0  0  0  0  0  0  0  0  0  0
   -7.9555    0.4260  -11.5268 H   0  0  0  0  0  0  0  0  0  0  0  0
   -7.5765    1.8532  -10.5330 H   0  0  0  0  0  0  0  0  0  0  0  0
  1  2  1  0  0  0  0
  1 21  1  0  0  0  0
  1 22  1  0  0  0  0
  1 23  1  0  0  0  0
  2  3  1  0  0  0  0
  2 24  1  0  0  0  0
  2 25  1  0  0  0  0
  3  4  2  0  0  0  0
  3 26  1  0  0  0  0
  4  5  1  0  0  0  0
  4 27  1  0  0  0  0
  5  6  1  0  0  0  0
  5 28  1  0  0  0  0
  5 29  1  0  0  0  0
  6  7  2  0  0  0  0
  6 30  1  0  0  0  0
  7  8  1  0  0  0  0
  7 31  1  0  0  0  0
  8  9  1  0  0  0  0
  8 32  1  0  0  0  0
  8 33  1  0  0  0  0
  9 10  2  0  0  0  0
  9 34  1  0  0  0  0
 10 11  1  0  0  0  0
 10 35  1  0  0  0  0
 11 12  1  0  0  0  0
 11 36  1  0  0  0  0
 11 37  1  0  0  0  0
 12 13  1  0  0  0  0
 12 38  1  0  0  0  0
 12 39  1  0  0  0  0
 13 14  1  0  0  0  0
 13 40  1  0  0  0  0
 13 41  1  0  0  0  0
 14 15  1  0  0  0  0
 14 42  1  0  0  0  0
 14 43  1  0  0  0  0
 15 16  1  0  0  0  0
 15 44  1  0  0  0  0
 15 45  1  0  0  0  0
 16 17  1  0  0  0  0
 16 46  1  0  0  0  0
 16 47  1  0  0  0  0
 17 18  1  0  0  0  0
 17 48  1  0  0  0  0
 17 49  1  0  0  0  0
 18 19  2  0  0  0  0
 18 20  1  0  0  0  0
M  END
$$$$
