ZINC00000440
 OpenBabel08292219463D

 34 37  0  0  1  0  0  0  0  0999 V2000
   -1.2154    1.7525    0.0173 C   0  0  0  0  0  0  0  0  0  0  0  0
   -1.2367    3.1359    0.0316 C   0  0  0  0  0  0  0  0  0  0  0  0
   -0.0518    3.8515    0.0237 C   0  0  0  0  0  0  0  0  0  0  0  0
    1.1538    3.1842    0.0082 C   0  0  0  0  0  0  0  0  0  0  0  0
    1.1839    1.7925    0.0004 C   0  0  0  0  0  0  0  0  0  0  0  0
   -0.0126    1.0758    0.0080 C   0  0  0  0  0  0  0  0  0  0  0  0
    2.6036    1.3421   -0.0156 C   0  0  0  0  0  0  0  0  0  0  0  0
    4.7115    0.4696   -0.0405 C   0  0  0  0  0  0  0  0  0  0  0  0
    4.8236    2.0056   -0.0333 C   0  0  0  0  0  0  0  0  0  0  0  0
    3.4185    2.4456   -0.0175 N   0  0  0  0  0  0  0  0  0  0  0  0
    2.5855    3.6542   -0.0030 C   0  0  1  0  0  0  0  0  0  0  0  0
    2.8505    4.4797   -1.2356 C   0  0  0  0  0  0  0  0  0  0  0  0
    3.2377    3.8624   -2.4104 C   0  0  0  0  0  0  0  0  0  0  0  0
    3.4754    4.6185   -3.5428 C   0  0  0  0  0  0  0  0  0  0  0  0
    3.3366    5.9943   -3.4974 C   0  0  0  0  0  0  0  0  0  0  0  0
    2.9545    6.6119   -2.3199 C   0  0  0  0  0  0  0  0  0  0  0  0
    2.7116    5.8543   -1.1896 C   0  0  0  0  0  0  0  0  0  0  0  0
    3.6412    6.9451   -4.9175 Cl  0  0  0  0  0  0  0  0  0  0  0  0
    2.8582    4.4237    1.1699 O   0  0  0  0  0  0  0  0  0  0  0  0
   -2.1434    1.2001    0.0183 H   0  0  0  0  0  0  0  0  0  0  0  0
   -2.1812    3.6594    0.0434 H   0  0  0  0  0  0  0  0  0  0  0  0
   -0.0721    4.9313    0.0294 H   0  0  0  0  0  0  0  0  0  0  0  0
    0.0021   -0.0041    0.0020 H   0  0  0  0  0  0  0  0  0  0  0  0
    5.1805    0.0484    0.8487 H   0  0  0  0  0  0  0  0  0  0  0  0
    5.1638    0.0560   -0.9419 H   0  0  0  0  0  0  0  0  0  0  0  0
    5.3444    2.3492    0.8605 H   0  0  0  0  0  0  0  0  0  0  0  0
    5.3299    2.3587   -0.9316 H   0  0  0  0  0  0  0  0  0  0  0  0
    3.3503    2.7889   -2.4446 H   0  0  0  0  0  0  0  0  0  0  0  0
    3.7736    4.1358   -4.4617 H   0  0  0  0  0  0  0  0  0  0  0  0
    2.8463    7.6859   -2.2837 H   0  0  0  0  0  0  0  0  0  0  0  0
    2.4130    6.3364   -0.2705 H   0  0  0  0  0  0  0  0  0  0  0  0
    2.3380    5.2360    1.2371 H   0  0  0  0  0  0  0  0  0  0  0  0
    3.2644    0.2103   -0.0281 N   0  0  0  0  0  4  0  0  0  0  0  0
    2.8340   -0.7219   -0.0291 H   0  0  0  0  0  0  0  0  0  0  0  0
  1  6  2  0  0  0  0
  1  2  1  0  0  0  0
  1 20  1  0  0  0  0
  2  3  2  0  0  0  0
  2 21  1  0  0  0  0
  3  4  1  0  0  0  0
  3 22  1  0  0  0  0
  4 11  1  0  0  0  0
  4  5  2  0  0  0  0
  5  6  1  0  0  0  0
  5  7  1  0  0  0  0
  6 23  1  0  0  0  0
  7 10  1  0  0  0  0
  7 33  2  0  0  0  0
  8  9  1  0  0  0  0
  8 24  1  0  0  0  0
  8 25  1  0  0  0  0
  8 33  1  0  0  0  0
  9 10  1  0  0  0  0
  9 26  1  0  0  0  0
  9 27  1  0  0  0  0
 10 11  1  0  0  0  0
 11 12  1  0  0  0  0
 11 19  1  1  0  0  0
 12 17  2  0  0  0  0
 12 13  1  0  0  0  0
 13 14  2  0  0  0  0
 13 28  1  0  0  0  0
 14 15  1  0  0  0  0
 14 29  1  0  0  0  0
 15 16  2  0  0  0  0
 15 18  1  0  0  0  0
 16 17  1  0  0  0  0
 16 30  1  0  0  0  0
 17 31  1  0  0  0  0
 19 32  1  0  0  0  0
 33 34  1  0  0  0  0
M  END
$$$$
