ZINC19419017
 OpenBabel08292219463D

 47 46  0  0  1  0  0  0  0  0999 V2000
   -1.8327    2.1514    1.0678 C   0  0  0  0  0  0  0  0  0  0  0  0
   -1.3848    0.9013    1.8278 C   0  0  0  0  0  0  0  0  0  0  0  0
   -2.5242   -0.0132    1.9808 N   0  0  0  0  0  0  0  0  0  0  0  0
   -2.9601   -0.5337    0.6780 C   0  0  0  0  0  0  0  0  0  0  0  0
   -1.8312   -1.3025    0.0410 C   0  0  0  0  0  0  0  0  0  0  0  0
   -0.7689   -1.4232    0.6270 O   0  0  0  0  0  0  0  0  0  0  0  0
   -1.9803   -1.8036   -1.0604 O   0  0  0  0  0  1  0  0  0  0  0  0
   -2.1994   -1.1091    2.9035 C   0  0  0  0  0  0  0  0  0  0  0  0
   -3.4715   -1.7784    3.3561 C   0  0  0  0  0  0  0  0  0  0  0  0
   -4.5521   -1.3198    3.0268 O   0  0  0  0  0  0  0  0  0  0  0  0
   -3.4201   -2.7785    4.0516 O   0  0  0  0  0  1  0  0  0  0  0  0
   -0.6933    3.0659    0.9148 N   0  3  2  0  0  0  0  0  0  0  0  0
   -1.1490    4.3160    0.2921 C   0  0  0  0  0  0  0  0  0  0  0  0
   -2.1042    5.0406    1.2426 C   0  0  0  0  0  0  0  0  0  0  0  0
   -2.5389    6.3035    0.6311 N   0  0  0  0  0  0  0  0  0  0  0  0
   -3.3564    6.0558   -0.5640 C   0  0  0  0  0  0  0  0  0  0  0  0
   -4.5712    5.2492   -0.1834 C   0  0  0  0  0  0  0  0  0  0  0  0
   -4.7944    4.9997    0.9889 O   0  0  0  0  0  0  0  0  0  0  0  0
   -5.3307    4.8463   -1.0478 O   0  0  0  0  0  1  0  0  0  0  0  0
   -3.2630    7.1361    1.6009 C   0  0  0  0  0  0  0  0  0  0  0  0
   -3.3327    8.5533    1.0931 C   0  0  0  0  0  0  0  0  0  0  0  0
   -2.7550    8.8601    0.0772 O   0  0  0  0  0  0  0  0  0  0  0  0
   -4.0366    9.4747    1.7694 O   0  0  0  0  0  0  0  0  0  0  0  0
    0.3271    2.4388    0.0643 C   0  0  0  0  0  0  0  0  0  0  0  0
    1.5575    3.3085    0.0316 C   0  0  0  0  0  0  0  0  0  0  0  0
    1.6276    4.2925    0.7481 O   0  0  0  0  0  0  0  0  0  0  0  0
    2.4827    3.0281   -0.7112 O   0  0  0  0  0  1  0  0  0  0  0  0
   -2.2034    1.8649    0.0836 H   0  0  0  0  0  0  0  0  0  0  0  0
   -2.6266    2.6498    1.6240 H   0  0  0  0  0  0  0  0  0  0  0  0
   -0.5910    0.4028    1.2715 H   0  0  0  0  0  0  0  0  0  0  0  0
   -1.0142    1.1878    2.8120 H   0  0  0  0  0  0  0  0  0  0  0  0
   -3.8157   -1.1943    0.8185 H   0  0  0  0  0  0  0  0  0  0  0  0
   -3.2444    0.2967    0.0317 H   0  0  0  0  0  0  0  0  0  0  0  0
   -1.5670   -1.8369    2.3951 H   0  0  0  0  0  0  0  0  0  0  0  0
   -1.6707   -0.7104    3.7694 H   0  0  0  0  0  0  0  0  0  0  0  0
   -0.2893    4.9533    0.0853 H   0  0  0  0  0  0  0  0  0  0  0  0
   -1.6663    4.0899   -0.6403 H   0  0  0  0  0  0  0  0  0  0  0  0
   -2.9734    4.4113    1.4337 H   0  0  0  0  0  0  0  0  0  0  0  0
   -1.5929    5.2490    2.1824 H   0  0  0  0  0  0  0  0  0  0  0  0
   -3.6716    7.0073   -0.9922 H   0  0  0  0  0  0  0  0  0  0  0  0
   -2.7691    5.5038   -1.2979 H   0  0  0  0  0  0  0  0  0  0  0  0
   -4.2728    6.7469    1.7315 H   0  0  0  0  0  0  0  0  0  0  0  0
   -2.7402    7.1181    2.5571 H   0  0  0  0  0  0  0  0  0  0  0  0
   -4.0225   10.3538    1.3668 H   0  0  0  0  0  0  0  0  0  0  0  0
    0.5849    1.4597    0.4680 H   0  0  0  0  0  0  0  0  0  0  0  0
   -0.0633    2.3236   -0.9468 H   0  0  0  0  0  0  0  0  0  0  0  0
   -0.2987    3.2662    1.8216 H   0  0  0  0  0  0  0  0  0  0  0  0
  1  2  1  0  0  0  0
  1 12  1  0  0  0  0
  1 28  1  0  0  0  0
  1 29  1  0  0  0  0
  2  3  1  0  0  0  0
  2 30  1  0  0  0  0
  2 31  1  0  0  0  0
  3  4  1  0  0  0  0
  3  8  1  0  0  0  0
  4  5  1  0  0  0  0
  4 32  1  0  0  0  0
  4 33  1  0  0  0  0
  5  6  2  0  0  0  0
  5  7  1  0  0  0  0
  8  9  1  0  0  0  0
  8 34  1  0  0  0  0
  8 35  1  0  0  0  0
  9 10  2  0  0  0  0
  9 11  1  0  0  0  0
 12 13  1  0  0  0  0
 12 24  1  0  0  0  0
 12 47  1  1  0  0  0
 13 14  1  0  0  0  0
 13 36  1  0  0  0  0
 13 37  1  0  0  0  0
 14 15  1  0  0  0  0
 14 38  1  0  0  0  0
 14 39  1  0  0  0  0
 15 16  1  0  0  0  0
 15 20  1  0  0  0  0
 16 17  1  0  0  0  0
 16 40  1  0  0  0  0
 16 41  1  0  0  0  0
 17 18  2  0  0  0  0
 17 19  1  0  0  0  0
 20 21  1  0  0  0  0
 20 42  1  0  0  0  0
 20 43  1  0  0  0  0
 21 22  2  0  0  0  0
 21 23  1  0  0  0  0
 23 44  1  0  0  0  0
 24 25  1  0  0  0  0
 24 45  1  0  0  0  0
 24 46  1  0  0  0  0
 25 26  2  0  0  0  0
 25 27  1  0  0  0  0
M  CHG  1  12   1
M  END
$$$$
