ZINC54053579
 OpenBabel08292219463D

 99101  0  0  1  0  0  0  0  0999 V2000
   -3.3970    3.4223   -2.5891 C   0  0  0  0  0  0  0  0  0  0  0  0
   -2.8921    2.0959   -2.0176 C   0  0  0  0  0  0  0  0  0  0  0  0
   -2.5483    1.1872   -3.1195 N   0  3  0  0  0  0  0  0  0  0  0  0
   -1.4168    1.7405   -3.8755 C   0  0  0  0  0  0  0  0  0  0  0  0
   -1.1779    0.8946   -5.1278 C   0  0  0  0  0  0  0  0  0  0  0  0
   -2.1777   -0.1255   -2.5741 C   0  0  0  0  0  0  0  0  0  0  0  0
   -3.3950   -0.7587   -1.8972 C   0  0  0  0  0  0  0  0  0  0  0  0
   -2.9864   -2.4471   -1.3750 S   0  0  0  0  0  0  0  0  0  0  0  0
   -2.7457   -3.2308   -2.5357 O   0  0  0  0  0  0  0  0  0  0  0  0
   -1.9853   -2.3766   -0.3690 O   0  0  0  0  0  0  0  0  0  0  0  0
   -4.5300   -3.0145   -0.6096 C   0  0  2  0  0  0  0  0  0  0  0  0
   -5.3232   -3.0610   -1.3558 H   0  0  0  0  0  0  0  0  0  0  0  0
   -4.9313   -2.0723    0.5271 C   0  0  0  0  0  0  0  0  0  0  0  0
   -4.5870   -2.8288    1.8126 C   0  0  0  0  0  0  0  0  0  0  0  0
   -4.4971   -4.2510    1.4752 N   0  0  0  0  0  0  0  0  0  0  0  0
   -4.3269   -4.3877    0.0278 C   0  0  1  0  0  0  0  0  0  0  0  0
   -3.3230   -4.7536   -0.1915 H   0  0  0  0  0  0  0  0  0  0  0  0
   -5.3488   -5.3557   -0.5128 C   0  0  0  0  0  0  0  0  0  0  0  0
   -6.2208   -4.9618   -1.2506 O   0  0  0  0  0  0  0  0  0  0  0  0
   -5.2918   -6.6538   -0.1768 O   0  0  0  0  0  0  0  0  0  0  0  0
   -5.9059   -7.5815   -1.0733 C   0  0  1  0  0  0  0  0  0  0  0  0
   -5.1677   -7.9321   -1.7946 H   0  0  0  0  0  0  0  0  0  0  0  0
   -6.4529   -8.7730   -0.2842 C   0  0  1  0  0  0  0  0  0  0  0  0
   -7.4682   -8.5547    0.0469 H   0  0  0  0  0  0  0  0  0  0  0  0
   -6.4635   -9.9941   -1.1672 C   0  0  0  0  0  0  0  0  0  0  0  0
   -6.8729  -11.1644   -0.6888 C   0  0  0  0  0  0  0  0  0  0  0  0
   -7.3227  -11.2800    0.7072 C   0  0  0  0  0  0  0  0  0  0  0  0
   -7.3350  -10.3030    1.4314 O   0  0  0  0  0  0  0  0  0  0  0  0
   -7.7233  -12.4851    1.1777 N   0  0  0  0  0  0  0  0  0  0  0  0
   -8.1900  -12.5787    2.5679 C   0  0  0  0  0  0  0  0  0  0  0  0
   -7.0220  -12.4261    3.5011 C   0  0  0  0  0  0  0  0  0  0  0  0
   -7.0916  -11.7963    4.6569 C   0  0  0  0  0  0  0  0  0  0  0  0
   -8.2942  -11.1855    5.2230 C   0  0  0  0  0  0  0  0  0  0  0  0
   -8.1795  -10.1617    6.0693 C   0  0  0  0  0  0  0  0  0  0  0  0
   -6.8175   -9.6344    6.4365 C   0  0  2  0  0  0  0  0  0  0  0  0
   -6.4770  -10.1150    7.3536 H   0  0  0  0  0  0  0  0  0  0  0  0
   -6.8970   -8.1216    6.6527 C   0  0  0  0  0  0  0  0  0  0  0  0
   -5.5229   -7.5848    6.9597 C   0  0  0  0  0  0  0  0  0  0  0  0
   -4.5790   -8.3363    7.0107 O   0  0  0  0  0  0  0  0  0  0  0  0
   -5.3256   -6.1105    7.2027 C   0  0  0  0  0  0  0  0  0  0  0  0
   -5.1321   -5.4065    5.8840 C   0  0  0  0  0  0  0  0  0  0  0  0
   -4.9160   -5.9923    4.7453 N   0  0  0  0  0  0  0  0  0  0  0  0
   -4.8003   -5.0350    3.7833 C   0  0  0  0  0  0  0  0  0  0  0  0
   -4.9483   -3.8312    4.3988 C   0  0  0  0  0  0  0  0  0  0  0  0
   -5.1533   -4.0787    5.7022 O   0  0  0  0  0  0  0  0  0  0  0  0
   -4.5642   -5.2763    2.3485 C   0  0  0  0  0  0  0  0  0  0  0  0
   -4.4289   -6.4155    1.9450 O   0  0  0  0  0  0  0  0  0  0  0  0
   -5.8969   -9.9168    5.3807 O   0  0  0  0  0  0  0  0  0  0  0  0
   -9.6745  -11.7033    4.9093 C   0  0  0  0  0  0  0  0  0  0  0  0
   -5.5631   -9.0306    0.9336 C   0  0  0  0  0  0  0  0  0  0  0  0
   -7.0534   -6.8914   -1.8134 C   0  0  0  0  0  0  0  0  0  0  0  0
   -7.7609   -7.9045   -2.7155 C   0  0  0  0  0  0  0  0  0  0  0  0
   -8.0503   -6.3294   -0.7979 C   0  0  0  0  0  0  0  0  0  0  0  0
   -3.6521    4.0965   -1.7715 H   0  0  0  0  0  0  0  0  0  0  0  0
   -2.6174    3.8738   -3.2026 H   0  0  0  0  0  0  0  0  0  0  0  0
   -4.2813    3.2414   -3.2002 H   0  0  0  0  0  0  0  0  0  0  0  0
   -2.0078    2.2767   -1.4064 H   0  0  0  0  0  0  0  0  0  0  0  0
   -3.6717    1.6443   -1.4041 H   0  0  0  0  0  0  0  0  0  0  0  0
   -1.6418    2.7663   -4.1674 H   0  0  0  0  0  0  0  0  0  0  0  0
   -0.5225    1.7278   -3.2524 H   0  0  0  0  0  0  0  0  0  0  0  0
   -2.0628    0.9282   -5.7633 H   0  0  0  0  0  0  0  0  0  0  0  0
   -0.3222    1.2897   -5.6753 H   0  0  0  0  0  0  0  0  0  0  0  0
   -0.9784   -0.1368   -4.8370 H   0  0  0  0  0  0  0  0  0  0  0  0
   -1.8347   -0.7712   -3.3826 H   0  0  0  0  0  0  0  0  0  0  0  0
   -1.3784   -0.0028   -1.8432 H   0  0  0  0  0  0  0  0  0  0  0  0
   -3.6752   -0.1667   -1.0260 H   0  0  0  0  0  0  0  0  0  0  0  0
   -4.2276   -0.7872   -2.6001 H   0  0  0  0  0  0  0  0  0  0  0  0
   -4.3606   -1.1454    0.4694 H   0  0  0  0  0  0  0  0  0  0  0  0
   -6.0003   -1.8635    0.4859 H   0  0  0  0  0  0  0  0  0  0  0  0
   -3.6310   -2.4798    2.2029 H   0  0  0  0  0  0  0  0  0  0  0  0
   -5.3699   -2.6731    2.5548 H   0  0  0  0  0  0  0  0  0  0  0  0
   -6.1371   -9.9171   -2.1949 H   0  0  0  0  0  0  0  0  0  0  0  0
   -6.8760  -12.0360   -1.3281 H   0  0  0  0  0  0  0  0  0  0  0  0
   -7.7028  -13.2703    0.6085 H   0  0  0  0  0  0  0  0  0  0  0  0
   -8.9153  -11.7884    2.7615 H   0  0  0  0  0  0  0  0  0  0  0  0
   -8.6591  -13.5493    2.7288 H   0  0  0  0  0  0  0  0  0  0  0  0
   -6.0657  -12.8615    3.2059 H   0  0  0  0  0  0  0  0  0  0  0  0
   -6.1668  -11.7310    5.2434 H   0  0  0  0  0  0  0  0  0  0  0  0
   -9.0668   -9.7127    6.4894 H   0  0  0  0  0  0  0  0  0  0  0  0
   -7.2798   -7.6452    5.7502 H   0  0  0  0  0  0  0  0  0  0  0  0
   -7.5650   -7.9085    7.4872 H   0  0  0  0  0  0  0  0  0  0  0  0
   -6.2030   -5.7045    7.7062 H   0  0  0  0  0  0  0  0  0  0  0  0
   -4.4455   -5.9597    7.8278 H   0  0  0  0  0  0  0  0  0  0  0  0
   -4.9086   -2.8601    3.9281 H   0  0  0  0  0  0  0  0  0  0  0  0
   -6.0873   -9.4475    4.5568 H   0  0  0  0  0  0  0  0  0  0  0  0
   -9.5982  -12.5538    4.2318 H   0  0  0  0  0  0  0  0  0  0  0  0
  -10.1635  -12.0164    5.8318 H   0  0  0  0  0  0  0  0  0  0  0  0
  -10.2600  -10.9143    4.4374 H   0  0  0  0  0  0  0  0  0  0  0  0
   -5.9279   -8.4484    1.7798 H   0  0  0  0  0  0  0  0  0  0  0  0
   -5.5884  -10.0911    1.1842 H   0  0  0  0  0  0  0  0  0  0  0  0
   -4.5391   -8.7358    0.7042 H   0  0  0  0  0  0  0  0  0  0  0  0
   -6.6568   -6.0783   -2.4214 H   0  0  0  0  0  0  0  0  0  0  0  0
   -8.2593   -8.6534   -2.0999 H   0  0  0  0  0  0  0  0  0  0  0  0
   -8.4992   -7.3900   -3.3306 H   0  0  0  0  0  0  0  0  0  0  0  0
   -7.0283   -8.3920   -3.3588 H   0  0  0  0  0  0  0  0  0  0  0  0
   -7.5146   -5.7529   -0.0437 H   0  0  0  0  0  0  0  0  0  0  0  0
   -8.7647   -5.6839   -1.3089 H   0  0  0  0  0  0  0  0  0  0  0  0
   -8.5818   -7.1509   -0.3176 H   0  0  0  0  0  0  0  0  0  0  0  0
   -3.3438    1.0847   -3.7316 H   0  0  0  0  0  0  0  0  0  0  0  0
  1  2  1  0  0  0  0
  1 54  1  0  0  0  0
  1 55  1  0  0  0  0
  1 56  1  0  0  0  0
  2  3  1  0  0  0  0
  2 57  1  0  0  0  0
  2 58  1  0  0  0  0
  3  4  1  0  0  0  0
  3  6  1  0  0  0  0
  3 99  1  0  0  0  0
  4  5  1  0  0  0  0
  4 59  1  0  0  0  0
  4 60  1  0  0  0  0
  5 61  1  0  0  0  0
  5 62  1  0  0  0  0
  5 63  1  0  0  0  0
  6  7  1  0  0  0  0
  6 64  1  0  0  0  0
  6 65  1  0  0  0  0
  7  8  1  0  0  0  0
  7 66  1  0  0  0  0
  7 67  1  0  0  0  0
  8  9  2  0  0  0  0
  8 10  2  0  0  0  0
  8 11  1  0  0  0  0
 11 12  1  6  0  0  0
 11 16  1  0  0  0  0
 11 13  1  0  0  0  0
 13 14  1  0  0  0  0
 13 68  1  0  0  0  0
 13 69  1  0  0  0  0
 14 15  1  0  0  0  0
 14 70  1  0  0  0  0
 14 71  1  0  0  0  0
 15 46  1  0  0  0  0
 15 16  1  0  0  0  0
 16 17  1  6  0  0  0
 16 18  1  0  0  0  0
 18 19  2  0  0  0  0
 18 20  1  0  0  0  0
 20 21  1  0  0  0  0
 21 22  1  6  0  0  0
 21 23  1  0  0  0  0
 21 51  1  0  0  0  0
 23 24  1  1  0  0  0
 23 25  1  0  0  0  0
 23 50  1  0  0  0  0
 25 26  2  0  0  0  0
 25 72  1  0  0  0  0
 26 27  1  0  0  0  0
 26 73  1  0  0  0  0
 27 28  2  0  0  0  0
 27 29  1  0  0  0  0
 29 30  1  0  0  0  0
 29 74  1  0  0  0  0
 30 31  1  0  0  0  0
 30 75  1  0  0  0  0
 30 76  1  0  0  0  0
 31 32  2  0  0  0  0
 31 77  1  0  0  0  0
 32 33  1  0  0  0  0
 32 78  1  0  0  0  0
 33 34  2  0  0  0  0
 33 49  1  0  0  0  0
 34 35  1  0  0  0  0
 34 79  1  0  0  0  0
 35 36  1  1  0  0  0
 35 37  1  0  0  0  0
 35 48  1  0  0  0  0
 37 38  1  0  0  0  0
 37 80  1  0  0  0  0
 37 81  1  0  0  0  0
 38 39  2  0  0  0  0
 38 40  1  0  0  0  0
 40 41  1  0  0  0  0
 40 82  1  0  0  0  0
 40 83  1  0  0  0  0
 41 45  1  0  0  0  0
 41 42  2  0  0  0  0
 42 43  1  0  0  0  0
 43 44  2  0  0  0  0
 43 46  1  0  0  0  0
 44 45  1  0  0  0  0
 44 84  1  0  0  0  0
 46 47  2  0  0  0  0
 48 85  1  0  0  0  0
 49 86  1  0  0  0  0
 49 87  1  0  0  0  0
 49 88  1  0  0  0  0
 50 89  1  0  0  0  0
 50 90  1  0  0  0  0
 50 91  1  0  0  0  0
 51 52  1  0  0  0  0
 51 53  1  0  0  0  0
 51 92  1  0  0  0  0
 52 93  1  0  0  0  0
 52 94  1  0  0  0  0
 52 95  1  0  0  0  0
 53 96  1  0  0  0  0
 53 97  1  0  0  0  0
 53 98  1  0  0  0  0
M  CHG  1   3   1
M  END
$$$$
