ZINC19360739
 OpenBabel08292219463D

 57 60  0  0  0  0  0  0  0  0999 V2000
   -0.5652    1.2485    0.7222 C   0  0  0  0  0  0  0  0  0  0  0  0
    0.5404    2.0554    0.9232 C   0  0  0  0  0  0  0  0  0  0  0  0
    1.8064    1.5069    0.9299 C   0  0  0  0  0  0  0  0  0  0  0  0
    1.9702    0.1352    0.7340 C   0  0  0  0  0  0  0  0  0  0  0  0
    0.8509   -0.6733    0.5323 C   0  0  0  0  0  0  0  0  0  0  0  0
   -0.4096   -0.1123    0.5274 C   0  0  0  0  0  0  0  0  0  0  0  0
    3.3236   -0.4590    0.7395 C   0  0  0  0  0  0  0  0  0  0  0  0
    3.4760   -1.7626    0.5530 C   0  0  0  0  0  0  0  0  0  0  0  0
    4.8559   -2.3684    0.5587 C   0  0  0  0  0  0  0  0  0  0  0  0
    4.9108   -3.4522    1.5488 N   0  3  0  0  0  0  0  0  0  0  0  0
    4.0101   -4.5370    1.1373 C   0  0  0  0  0  0  0  0  0  0  0  0
    4.0527   -5.6581    2.1781 C   0  0  0  0  0  0  0  0  0  0  0  0
    5.4291   -6.1596    2.2975 N   0  0  0  0  0  0  0  0  0  0  0  0
    6.3467   -5.0788    2.6848 C   0  0  0  0  0  0  0  0  0  0  0  0
    6.2851   -3.9625    1.6399 C   0  0  0  0  0  0  0  0  0  0  0  0
    5.5014   -7.2775    3.2479 C   0  0  0  0  0  0  0  0  0  0  0  0
    4.5657   -8.3733    2.8066 C   0  0  0  0  0  0  0  0  0  0  0  0
    4.5143   -8.7433    1.4756 C   0  0  0  0  0  0  0  0  0  0  0  0
    3.6570   -9.7484    1.0699 C   0  0  0  0  0  0  0  0  0  0  0  0
    2.8492  -10.3848    1.9971 C   0  0  0  0  0  0  0  0  0  0  0  0
    2.9015  -10.0133    3.3299 C   0  0  0  0  0  0  0  0  0  0  0  0
    3.7634   -9.0115    3.7341 C   0  0  0  0  0  0  0  0  0  0  0  0
    2.0103  -11.3671    1.6015 F   0  0  0  0  0  0  0  0  0  0  0  0
    6.9111   -7.8084    3.2926 C   0  0  0  0  0  0  0  0  0  0  0  0
    7.6132   -8.0036    2.1178 C   0  0  0  0  0  0  0  0  0  0  0  0
    8.9061   -8.4900    2.1575 C   0  0  0  0  0  0  0  0  0  0  0  0
    9.4983   -8.7818    3.3746 C   0  0  0  0  0  0  0  0  0  0  0  0
    8.7941   -8.5859    4.5506 C   0  0  0  0  0  0  0  0  0  0  0  0
    7.5032   -8.0944    4.5086 C   0  0  0  0  0  0  0  0  0  0  0  0
   10.7620   -9.2578    3.4147 F   0  0  0  0  0  0  0  0  0  0  0  0
   -1.5544    1.6820    0.7219 H   0  0  0  0  0  0  0  0  0  0  0  0
    0.4123    3.1170    1.0747 H   0  0  0  0  0  0  0  0  0  0  0  0
    2.6688    2.1380    1.0862 H   0  0  0  0  0  0  0  0  0  0  0  0
    0.9711   -1.7357    0.3797 H   0  0  0  0  0  0  0  0  0  0  0  0
   -1.2767   -0.7369    0.3711 H   0  0  0  0  0  0  0  0  0  0  0  0
    4.1884    0.1689    0.8954 H   0  0  0  0  0  0  0  0  0  0  0  0
    2.6112   -2.3905    0.3971 H   0  0  0  0  0  0  0  0  0  0  0  0
    5.0814   -2.7678   -0.4301 H   0  0  0  0  0  0  0  0  0  0  0  0
    5.5877   -1.6029    0.8169 H   0  0  0  0  0  0  0  0  0  0  0  0
    2.9927   -4.1539    1.0575 H   0  0  0  0  0  0  0  0  0  0  0  0
    4.3285   -4.9266    0.1704 H   0  0  0  0  0  0  0  0  0  0  0  0
    3.7213   -5.2722    3.1421 H   0  0  0  0  0  0  0  0  0  0  0  0
    3.3957   -6.4697    1.8655 H   0  0  0  0  0  0  0  0  0  0  0  0
    6.0531   -4.6834    3.6572 H   0  0  0  0  0  0  0  0  0  0  0  0
    7.3633   -5.4679    2.7419 H   0  0  0  0  0  0  0  0  0  0  0  0
    6.5919   -4.3551    0.6704 H   0  0  0  0  0  0  0  0  0  0  0  0
    6.9545   -3.1536    1.9326 H   0  0  0  0  0  0  0  0  0  0  0  0
    5.2123   -6.9303    4.2398 H   0  0  0  0  0  0  0  0  0  0  0  0
    5.1443   -8.2466    0.7526 H   0  0  0  0  0  0  0  0  0  0  0  0
    3.6168  -10.0371    0.0300 H   0  0  0  0  0  0  0  0  0  0  0  0
    2.2716  -10.5087    4.0539 H   0  0  0  0  0  0  0  0  0  0  0  0
    3.8076   -8.7246    4.7744 H   0  0  0  0  0  0  0  0  0  0  0  0
    7.1509   -7.7762    1.1685 H   0  0  0  0  0  0  0  0  0  0  0  0
    9.4543   -8.6427    1.2396 H   0  0  0  0  0  0  0  0  0  0  0  0
    9.2549   -8.8135    5.5005 H   0  0  0  0  0  0  0  0  0  0  0  0
    6.9553   -7.9373    5.4260 H   0  0  0  0  0  0  0  0  0  0  0  0
    4.6228   -3.0997    2.4493 H   0  0  0  0  0  0  0  0  0  0  0  0
  1  6  2  0  0  0  0
  1  2  1  0  0  0  0
  1 31  1  0  0  0  0
  2  3  2  0  0  0  0
  2 32  1  0  0  0  0
  3  4  1  0  0  0  0
  3 33  1  0  0  0  0
  4  5  2  0  0  0  0
  4  7  1  0  0  0  0
  5  6  1  0  0  0  0
  5 34  1  0  0  0  0
  6 35  1  0  0  0  0
  7  8  2  0  0  0  0
  7 36  1  0  0  0  0
  8  9  1  0  0  0  0
  8 37  1  0  0  0  0
  9 10  1  0  0  0  0
  9 38  1  0  0  0  0
  9 39  1  0  0  0  0
 10 15  1  0  0  0  0
 10 11  1  0  0  0  0
 10 57  1  0  0  0  0
 11 12  1  0  0  0  0
 11 40  1  0  0  0  0
 11 41  1  0  0  0  0
 12 13  1  0  0  0  0
 12 42  1  0  0  0  0
 12 43  1  0  0  0  0
 13 14  1  0  0  0  0
 13 16  1  0  0  0  0
 14 15  1  0  0  0  0
 14 44  1  0  0  0  0
 14 45  1  0  0  0  0
 15 46  1  0  0  0  0
 15 47  1  0  0  0  0
 16 17  1  0  0  0  0
 16 24  1  0  0  0  0
 16 48  1  0  0  0  0
 17 22  2  0  0  0  0
 17 18  1  0  0  0  0
 18 19  2  0  0  0  0
 18 49  1  0  0  0  0
 19 20  1  0  0  0  0
 19 50  1  0  0  0  0
 20 21  2  0  0  0  0
 20 23  1  0  0  0  0
 21 22  1  0  0  0  0
 21 51  1  0  0  0  0
 22 52  1  0  0  0  0
 24 29  2  0  0  0  0
 24 25  1  0  0  0  0
 25 26  2  0  0  0  0
 25 53  1  0  0  0  0
 26 27  1  0  0  0  0
 26 54  1  0  0  0  0
 27 28  2  0  0  0  0
 27 30  1  0  0  0  0
 28 29  1  0  0  0  0
 28 55  1  0  0  0  0
 29 56  1  0  0  0  0
M  CHG  1  10   1
M  END
$$$$
