ZINC00001587
 OpenBabel08292219463D

 30 31  0  0  0  0  0  0  0  0999 V2000
   -0.0184    1.5028    0.0103 C   0  0  0  0  0  0  0  0  0  0  0  0
    0.0021   -0.0041    0.0020 C   0  0  0  0  0  0  0  0  0  0  0  0
   -1.0772   -0.8073    0.0026 C   0  0  0  0  0  0  0  0  0  0  0  0
   -0.6253   -2.1486   -0.0076 C   0  0  0  0  0  0  0  0  0  0  0  0
    0.6855   -2.1296   -0.0140 N   0  0  0  0  0  0  0  0  0  0  0  0
    1.0995   -0.7754   -0.0131 O   0  0  0  0  0  0  0  0  0  0  0  0
   -1.4820   -3.3596   -0.0101 C   0  0  0  0  0  0  0  0  0  0  0  0
   -2.6918   -3.2479   -0.0031 O   0  0  0  0  0  0  0  0  0  0  0  0
   -0.9183   -4.5838   -0.0203 N   0  0  0  0  0  0  0  0  0  0  0  0
   -1.7072   -5.6989   -0.0226 N   0  0  0  0  0  0  0  0  0  0  0  0
   -0.8916   -6.9207   -0.0341 C   0  0  0  0  0  0  0  0  0  0  0  0
   -1.7945   -8.1273   -0.0363 C   0  0  0  0  0  0  0  0  0  0  0  0
   -2.2067   -8.6843    1.1598 C   0  0  0  0  0  0  0  0  0  0  0  0
   -3.0349   -9.7911    1.1578 C   0  0  0  0  0  0  0  0  0  0  0  0
   -3.4511  -10.3407   -0.0404 C   0  0  0  0  0  0  0  0  0  0  0  0
   -3.0396   -9.7832   -1.2365 C   0  0  0  0  0  0  0  0  0  0  0  0
   -2.2149   -8.6738   -1.2344 C   0  0  0  0  0  0  0  0  0  0  0  0
    1.0042    1.8801    0.0026 H   0  0  0  0  0  0  0  0  0  0  0  0
   -0.5455    1.8639   -0.8728 H   0  0  0  0  0  0  0  0  0  0  0  0
   -0.5286    1.8543    0.9071 H   0  0  0  0  0  0  0  0  0  0  0  0
   -2.1080   -0.4851    0.0096 H   0  0  0  0  0  0  0  0  0  0  0  0
    0.0476   -4.6729   -0.0259 H   0  0  0  0  0  0  0  0  0  0  0  0
   -2.3497   -5.6858   -0.8005 H   0  0  0  0  0  0  0  0  0  0  0  0
   -0.2673   -6.9324   -0.9274 H   0  0  0  0  0  0  0  0  0  0  0  0
   -0.2578   -6.9428    0.8525 H   0  0  0  0  0  0  0  0  0  0  0  0
   -1.8816   -8.2549    2.0959 H   0  0  0  0  0  0  0  0  0  0  0  0
   -3.3564  -10.2267    2.0923 H   0  0  0  0  0  0  0  0  0  0  0  0
   -4.0976  -11.2059   -0.0420 H   0  0  0  0  0  0  0  0  0  0  0  0
   -3.3645  -10.2127   -2.1726 H   0  0  0  0  0  0  0  0  0  0  0  0
   -1.8963   -8.2359   -2.1689 H   0  0  0  0  0  0  0  0  0  0  0  0
  1  2  1  0  0  0  0
  1 18  1  0  0  0  0
  1 19  1  0  0  0  0
  1 20  1  0  0  0  0
  2  6  1  0  0  0  0
  2  3  2  0  0  0  0
  3  4  1  0  0  0  0
  3 21  1  0  0  0  0
  4  5  2  0  0  0  0
  4  7  1  0  0  0  0
  5  6  1  0  0  0  0
  7  8  2  0  0  0  0
  7  9  1  0  0  0  0
  9 10  1  0  0  0  0
  9 22  1  0  0  0  0
 10 11  1  0  0  0  0
 10 23  1  0  0  0  0
 11 12  1  0  0  0  0
 11 24  1  0  0  0  0
 11 25  1  0  0  0  0
 12 17  2  0  0  0  0
 12 13  1  0  0  0  0
 13 14  2  0  0  0  0
 13 26  1  0  0  0  0
 14 15  1  0  0  0  0
 14 27  1  0  0  0  0
 15 16  2  0  0  0  0
 15 28  1  0  0  0  0
 16 17  1  0  0  0  0
 16 29  1  0  0  0  0
 17 30  1  0  0  0  0
M  END
$$$$
