ZINC13520815
 OpenBabel08292219463D

 44 47  0  0  1  0  0  0  0  0999 V2000
   -0.0187    1.5258    0.0104 C   0  0  0  0  0  0  0  0  0  0  0  0
    0.0021   -0.0041    0.0020 C   0  0  2  0  0  0  0  0  0  0  0  0
   -1.4142   -0.5425    0.0489 C   0  0  0  0  0  0  0  0  0  0  0  0
   -2.0973    0.0441    1.2987 C   0  0  0  0  0  0  0  0  0  0  0  0
   -1.3125   -0.3073    2.5542 C   0  0  2  0  0  0  0  0  0  0  0  0
   -1.3075   -1.3927    2.6533 H   0  0  0  0  0  0  0  0  0  0  0  0
   -1.9424    0.2651    3.7900 C   0  0  0  0  0  0  0  0  0  0  0  0
   -3.3273    0.3484    3.8443 C   0  0  0  0  0  0  0  0  0  0  0  0
   -3.9576    0.8569    4.9598 C   0  0  0  0  0  0  0  0  0  0  0  0
   -3.2003    1.2884    6.0396 C   0  0  0  0  0  0  0  0  0  0  0  0
   -1.8198    1.2087    5.9840 C   0  0  0  0  0  0  0  0  0  0  0  0
   -1.1856    0.7013    4.8579 C   0  0  0  0  0  0  0  0  0  0  0  0
    0.3200    0.6669    4.8604 C   0  0  0  0  0  0  0  0  0  0  0  0
    0.8561   -0.2331    3.7476 C   0  0  0  0  0  0  0  0  0  0  0  0
    0.1446    0.1628    2.4542 C   0  0  1  0  0  0  0  0  0  0  0  0
    0.1741    1.2443    2.3212 H   0  0  0  0  0  0  0  0  0  0  0  0
    0.7512   -0.5345    1.2564 C   0  0  2  0  0  0  0  0  0  0  0  0
    0.6224   -1.6140    1.3350 H   0  0  0  0  0  0  0  0  0  0  0  0
    2.2091   -0.2046    0.9567 C   0  0  0  0  0  0  0  0  0  0  0  0
    2.3296   -0.2454   -0.5872 C   0  0  0  0  0  0  0  0  0  0  0  0
    0.8992   -0.5108   -1.1319 C   0  0  2  0  0  0  0  0  0  0  0  0
    0.7424   -1.5760   -1.3012 H   0  0  0  0  0  0  0  0  0  0  0  0
    0.6684    0.2327   -2.3302 O   0  0  0  0  0  0  0  0  0  0  0  0
   -3.8114    1.7874    7.1461 O   0  0  0  0  0  0  0  0  0  0  0  0
    1.0039    1.9031    0.0027 H   0  0  0  0  0  0  0  0  0  0  0  0
   -0.5459    1.8868   -0.8726 H   0  0  0  0  0  0  0  0  0  0  0  0
   -0.5289    1.8773    0.9072 H   0  0  0  0  0  0  0  0  0  0  0  0
   -1.9557   -0.2363   -0.8462 H   0  0  0  0  0  0  0  0  0  0  0  0
   -1.3938   -1.6303    0.1152 H   0  0  0  0  0  0  0  0  0  0  0  0
   -2.1534    1.1283    1.2019 H   0  0  0  0  0  0  0  0  0  0  0  0
   -3.1059   -0.3612    1.3804 H   0  0  0  0  0  0  0  0  0  0  0  0
   -3.9166    0.0119    3.0041 H   0  0  0  0  0  0  0  0  0  0  0  0
   -5.0353    0.9194    4.9932 H   0  0  0  0  0  0  0  0  0  0  0  0
   -1.2303    1.5447    6.8243 H   0  0  0  0  0  0  0  0  0  0  0  0
    0.7005    1.6781    4.7162 H   0  0  0  0  0  0  0  0  0  0  0  0
    0.6668    0.2900    5.8226 H   0  0  0  0  0  0  0  0  0  0  0  0
    1.9304   -0.0841    3.6397 H   0  0  0  0  0  0  0  0  0  0  0  0
    0.6512   -1.2764    3.9877 H   0  0  0  0  0  0  0  0  0  0  0  0
    2.4554    0.7900    1.3285 H   0  0  0  0  0  0  0  0  0  0  0  0
    2.8651   -0.9498    1.4065 H   0  0  0  0  0  0  0  0  0  0  0  0
    2.7000    0.7100   -0.9588 H   0  0  0  0  0  0  0  0  0  0  0  0
    3.0000   -1.0500   -0.8889 H   0  0  0  0  0  0  0  0  0  0  0  0
    1.2119   -0.0490   -3.0787 H   0  0  0  0  0  0  0  0  0  0  0  0
   -4.0214    1.1203    7.8140 H   0  0  0  0  0  0  0  0  0  0  0  0
  1 25  1  0  0  0  0
  1 26  1  0  0  0  0
  1 27  1  0  0  0  0
  2  1  1  1  0  0  0
  2 17  1  0  0  0  0
  2 21  1  0  0  0  0
  2  3  1  0  0  0  0
  3  4  1  0  0  0  0
  3 28  1  0  0  0  0
  3 29  1  0  0  0  0
  4  5  1  0  0  0  0
  4 30  1  0  0  0  0
  4 31  1  0  0  0  0
  5  6  1  1  0  0  0
  5 15  1  0  0  0  0
  5  7  1  0  0  0  0
  7 12  2  0  0  0  0
  7  8  1  0  0  0  0
  8  9  2  0  0  0  0
  8 32  1  0  0  0  0
  9 10  1  0  0  0  0
  9 33  1  0  0  0  0
 10 11  2  0  0  0  0
 10 24  1  0  0  0  0
 11 12  1  0  0  0  0
 11 34  1  0  0  0  0
 12 13  1  0  0  0  0
 13 14  1  0  0  0  0
 13 35  1  0  0  0  0
 13 36  1  0  0  0  0
 14 15  1  0  0  0  0
 14 37  1  0  0  0  0
 14 38  1  0  0  0  0
 15 16  1  6  0  0  0
 15 17  1  0  0  0  0
 17 18  1  1  0  0  0
 17 19  1  0  0  0  0
 19 20  1  0  0  0  0
 19 39  1  0  0  0  0
 19 40  1  0  0  0  0
 20 21  1  0  0  0  0
 20 41  1  0  0  0  0
 20 42  1  0  0  0  0
 21 22  1  6  0  0  0
 21 23  1  0  0  0  0
 23 43  1  0  0  0  0
 24 44  1  0  0  0  0
M  END
$$$$
