ZINC01489478
 OpenBabel08292219463D

 44 46  0  0  1  0  0  0  0  0999 V2000
   -0.0167    1.3794    0.0096 C   0  0  0  0  0  0  0  0  0  0  0  0
    1.1707    2.0873    0.0021 C   0  0  0  0  0  0  0  0  0  0  0  0
    2.3795    1.4131   -0.0131 C   0  0  0  0  0  0  0  0  0  0  0  0
    2.4004    0.0287   -0.0208 C   0  0  0  0  0  0  0  0  0  0  0  0
    1.2126   -0.6807   -0.0132 C   0  0  0  0  0  0  0  0  0  0  0  0
    0.0021   -0.0041    0.0020 C   0  0  0  0  0  0  0  0  0  0  0  0
   -1.1585   -0.6956    0.0099 F   0  0  0  0  0  0  0  0  0  0  0  0
    1.2319   -2.0315   -0.0211 F   0  0  0  0  0  0  0  0  0  0  0  0
    3.5392    2.1060   -0.0209 F   0  0  0  0  0  0  0  0  0  0  0  0
    1.1490    3.5942    0.0099 C   0  0  0  0  0  0  0  0  0  0  0  0
    1.4054    4.1005    1.4307 C   0  0  2  0  0  0  0  0  0  0  0  0
    0.6827    3.6519    2.1123 H   0  0  0  0  0  0  0  0  0  0  0  0
    1.2602    5.6233    1.4634 C   0  0  0  0  0  0  0  0  0  0  0  0
    1.3912    6.1100    2.8836 C   0  0  0  0  0  0  0  0  0  0  0  0
    1.5819    5.3170    3.7813 O   0  0  0  0  0  0  0  0  0  0  0  0
    1.2964    7.4265    3.1563 N   0  0  0  0  0  0  0  0  0  0  0  0
    1.4271    7.9249    4.5338 C   0  0  0  0  0  0  0  0  0  0  0  0
    2.6637    8.8263    4.6301 C   0  0  0  0  0  0  0  0  0  0  0  0
    2.6784    9.7446    3.4923 N   0  0  0  0  0  0  0  0  0  0  0  0
    1.9779    9.5775    2.3419 C   0  0  0  0  0  0  0  0  0  0  0  0
    2.2506   10.5825    1.5682 N   0  0  0  0  0  0  0  0  0  0  0  0
    3.0752   11.3728    2.1663 N   0  0  0  0  0  0  0  0  0  0  0  0
    3.3627   10.8973    3.3507 C   0  0  0  0  0  0  0  0  0  0  0  0
    4.2850   11.5213    4.3661 C   0  0  0  0  0  0  0  0  0  0  0  0
    4.5356   12.8516    4.0130 F   0  0  0  0  0  0  0  0  0  0  0  0
    3.6850   11.4792    5.6292 F   0  0  0  0  0  0  0  0  0  0  0  0
    5.4907   10.8124    4.3986 F   0  0  0  0  0  0  0  0  0  0  0  0
    1.0648    8.4092    2.0807 C   0  0  0  0  0  0  0  0  0  0  0  0
    2.7650    3.7293    1.8450 N   0  3  0  0  0  0  0  0  0  0  0  0
   -0.9593    1.9064    0.0260 H   0  0  0  0  0  0  0  0  0  0  0  0
    3.3436   -0.4973   -0.0330 H   0  0  0  0  0  0  0  0  0  0  0  0
    1.9247    3.9721   -0.6560 H   0  0  0  0  0  0  0  0  0  0  0  0
    0.1750    3.9453   -0.3307 H   0  0  0  0  0  0  0  0  0  0  0  0
    2.0400    6.0758    0.8509 H   0  0  0  0  0  0  0  0  0  0  0  0
    0.2823    5.9035    1.0720 H   0  0  0  0  0  0  0  0  0  0  0  0
    0.5381    8.4969    4.7998 H   0  0  0  0  0  0  0  0  0  0  0  0
    1.5366    7.0825    5.2169 H   0  0  0  0  0  0  0  0  0  0  0  0
    2.6273    9.3968    5.5581 H   0  0  0  0  0  0  0  0  0  0  0  0
    3.5641    8.2122    4.6141 H   0  0  0  0  0  0  0  0  0  0  0  0
    1.2983    7.9641    1.1135 H   0  0  0  0  0  0  0  0  0  0  0  0
    0.0267    8.7414    2.0975 H   0  0  0  0  0  0  0  0  0  0  0  0
    2.8608    2.7250    1.8234 H   0  0  0  0  0  0  0  0  0  0  0  0
    3.4341    4.1445    1.2141 H   0  0  0  0  0  0  0  0  0  0  0  0
    2.9341    4.0632    2.7820 H   0  0  0  0  0  0  0  0  0  0  0  0
  1  6  2  0  0  0  0
  1  2  1  0  0  0  0
  1 30  1  0  0  0  0
  2  3  2  0  0  0  0
  2 10  1  0  0  0  0
  3  4  1  0  0  0  0
  3  9  1  0  0  0  0
  4  5  2  0  0  0  0
  4 31  1  0  0  0  0
  5  6  1  0  0  0  0
  5  8  1  0  0  0  0
  6  7  1  0  0  0  0
 10 11  1  0  0  0  0
 10 32  1  0  0  0  0
 10 33  1  0  0  0  0
 11 12  1  1  0  0  0
 11 13  1  0  0  0  0
 11 29  1  0  0  0  0
 13 14  1  0  0  0  0
 13 34  1  0  0  0  0
 13 35  1  0  0  0  0
 14 15  2  0  0  0  0
 14 16  1  0  0  0  0
 16 28  1  0  0  0  0
 16 17  1  0  0  0  0
 17 18  1  0  0  0  0
 17 36  1  0  0  0  0
 17 37  1  0  0  0  0
 18 19  1  0  0  0  0
 18 38  1  0  0  0  0
 18 39  1  0  0  0  0
 19 23  1  0  0  0  0
 19 20  1  0  0  0  0
 20 21  2  0  0  0  0
 20 28  1  0  0  0  0
 21 22  1  0  0  0  0
 22 23  2  0  0  0  0
 23 24  1  0  0  0  0
 24 25  1  0  0  0  0
 24 26  1  0  0  0  0
 24 27  1  0  0  0  0
 28 40  1  0  0  0  0
 28 41  1  0  0  0  0
 29 42  1  0  0  0  0
 29 43  1  0  0  0  0
 29 44  1  0  0  0  0
M  CHG  1  29   1
M  END
$$$$
