ZINC12503242
 OpenBabel08292219463D

 38 39  0  0  0  0  0  0  0  0999 V2000
   -0.0523    1.3771   -0.4749 C   0  0  0  0  0  0  0  0  0  0  0  0
    1.1058    2.0966   -0.4671 C   0  0  0  0  0  0  0  0  0  0  0  0
    2.3273    1.4563   -0.2111 C   0  0  0  0  0  0  0  0  0  0  0  0
    3.5730    2.2296   -0.2020 C   0  0  0  0  0  0  0  0  0  0  0  0
    3.5445    3.5565   -0.4399 N   0  0  0  0  0  0  0  0  0  0  0  0
    4.7471    1.6138    0.0441 N   0  0  0  0  0  0  0  0  0  0  0  0
    2.3566    0.0759    0.0368 C   0  0  0  0  0  0  0  0  0  0  0  0
    1.1978   -0.6426    0.0287 C   0  0  0  0  0  0  0  0  0  0  0  0
   -0.0225   -0.0022   -0.2272 C   0  0  0  0  0  0  0  0  0  0  0  0
   -1.2702   -0.7767   -0.2358 C   0  0  0  0  0  0  0  0  0  0  0  0
   -1.2417   -2.1043    0.0026 C   0  0  0  0  0  0  0  0  0  0  0  0
   -2.4961   -2.8552    0.1212 C   0  0  0  0  0  0  0  0  0  0  0  0
   -2.4726   -4.2502    0.2248 C   0  0  0  0  0  0  0  0  0  0  0  0
   -3.6377   -4.9516    0.3358 C   0  0  0  0  0  0  0  0  0  0  0  0
   -4.8695   -4.2878    0.3470 C   0  0  0  0  0  0  0  0  0  0  0  0
   -4.9197   -2.9008    0.2448 C   0  0  0  0  0  0  0  0  0  0  0  0
   -3.7340   -2.1716    0.1371 C   0  0  0  0  0  0  0  0  0  0  0  0
   -3.7688   -0.8394    0.0444 O   0  0  0  0  0  0  0  0  0  0  0  0
   -6.1234   -5.0634    0.4675 C   0  0  0  0  0  0  0  0  0  0  0  0
   -6.9431   -4.8487    1.4949 N   0  0  0  0  0  4  0  0  0  0  0  0
   -6.4325   -5.9765   -0.4515 N   0  0  0  0  0  0  0  0  0  0  0  0
   -0.9934    1.8708   -0.6675 H   0  0  0  0  0  0  0  0  0  0  0  0
    1.0827    3.1593   -0.6583 H   0  0  0  0  0  0  0  0  0  0  0  0
    2.6999    3.9995   -0.6169 H   0  0  0  0  0  0  0  0  0  0  0  0
    4.3686    4.0681   -0.4339 H   0  0  0  0  0  0  0  0  0  0  0  0
    4.7675    0.6592    0.2152 H   0  0  0  0  0  0  0  0  0  0  0  0
    5.5711    2.1254    0.0500 H   0  0  0  0  0  0  0  0  0  0  0  0
    3.2968   -0.4176    0.2336 H   0  0  0  0  0  0  0  0  0  0  0  0
    1.2203   -1.7054    0.2192 H   0  0  0  0  0  0  0  0  0  0  0  0
   -2.2105   -0.2835   -0.4329 H   0  0  0  0  0  0  0  0  0  0  0  0
   -0.2953   -2.6142    0.1060 H   0  0  0  0  0  0  0  0  0  0  0  0
   -1.5282   -4.7741    0.2167 H   0  0  0  0  0  0  0  0  0  0  0  0
   -3.6090   -6.0283    0.4153 H   0  0  0  0  0  0  0  0  0  0  0  0
   -5.8714   -2.3904    0.2533 H   0  0  0  0  0  0  0  0  0  0  0  0
   -6.7180   -4.1837    2.1642 H   0  0  0  0  0  0  0  0  0  0  0  0
   -5.8354   -6.1329   -1.1998 H   0  0  0  0  0  0  0  0  0  0  0  0
   -7.2546   -6.4851   -0.3725 H   0  0  0  0  0  0  0  0  0  0  0  0
   -7.7653   -5.3573    1.5739 H   0  0  0  0  0  0  0  0  0  0  0  0
  1  9  1  0  0  0  0
  1  2  2  0  0  0  0
  1 22  1  0  0  0  0
  2  3  1  0  0  0  0
  2 23  1  0  0  0  0
  3  4  2  0  0  0  0
  3  7  1  0  0  0  0
  4  5  1  0  0  0  0
  4  6  1  0  0  0  0
  5 24  1  0  0  0  0
  5 25  1  0  0  0  0
  6 26  1  0  0  0  0
  6 27  1  0  0  0  0
  7  8  2  0  0  0  0
  7 28  1  0  0  0  0
  8  9  1  0  0  0  0
  8 29  1  0  0  0  0
  9 10  2  0  0  0  0
 10 11  1  0  0  0  0
 10 30  1  0  0  0  0
 11 12  2  0  0  0  0
 11 31  1  0  0  0  0
 12 17  1  0  0  0  0
 12 13  1  0  0  0  0
 13 14  2  0  0  0  0
 13 32  1  0  0  0  0
 14 15  1  0  0  0  0
 14 33  1  0  0  0  0
 15 16  2  0  0  0  0
 15 19  1  0  0  0  0
 16 17  1  0  0  0  0
 16 34  1  0  0  0  0
 17 18  2  0  0  0  0
 19 20  2  0  0  0  0
 19 21  1  0  0  0  0
 20 35  1  0  0  0  0
 20 38  1  0  0  0  0
 21 36  1  0  0  0  0
 21 37  1  0  0  0  0
M  END
$$$$
