ZINC03956919
 OpenBabel08292219463D

 44 45  0  0  0  0  0  0  0  0999 V2000
   -1.4796   -0.2574   -0.3696 C   0  0  0  0  0  0  0  0  0  0  0  0
   -0.0210    0.1621   -0.1766 C   0  0  0  0  0  0  0  0  0  0  0  0
    0.1447    1.6299   -0.5755 C   0  0  0  0  0  0  0  0  0  0  0  0
    0.3646   -0.0119    1.2699 C   0  0  0  0  0  0  0  0  0  0  0  0
    1.2760   -0.7634    1.5716 O   0  0  0  0  0  0  0  0  0  0  0  0
   -0.2349    0.5988    2.1383 O   0  0  0  0  0  1  0  0  0  0  0  0
    0.8211   -0.6520   -0.9952 O   0  0  0  0  0  0  0  0  0  0  0  0
    2.1548   -0.3938   -0.9570 C   0  0  0  0  0  0  0  0  0  0  0  0
    2.6576    0.5328   -0.0553 C   0  0  0  0  0  0  0  0  0  0  0  0
    4.0138    0.7931   -0.0181 C   0  0  0  0  0  0  0  0  0  0  0  0
    4.8699    0.1313   -0.8788 C   0  0  0  0  0  0  0  0  0  0  0  0
    4.3712   -0.7924   -1.7788 C   0  0  0  0  0  0  0  0  0  0  0  0
    3.0165   -1.0608   -1.8157 C   0  0  0  0  0  0  0  0  0  0  0  0
    6.3488    0.4175   -0.8364 C   0  0  0  0  0  0  0  0  0  0  0  0
    7.0237   -0.5318    0.1557 C   0  0  0  0  0  0  0  0  0  0  0  0
    8.4615   -0.2535    0.1969 N   0  0  0  0  0  0  0  0  0  0  0  0
    9.2639   -0.9720    1.0071 C   0  0  0  0  0  0  0  0  0  0  0  0
    8.7947   -1.8509    1.7036 O   0  0  0  0  0  0  0  0  0  0  0  0
   10.7143   -0.6913    1.0487 C   0  0  0  0  0  0  0  0  0  0  0  0
   11.2552    0.3213    0.2542 C   0  0  0  0  0  0  0  0  0  0  0  0
   12.6092    0.5789    0.2977 C   0  0  0  0  0  0  0  0  0  0  0  0
   13.4322   -0.1650    1.1270 C   0  0  0  0  0  0  0  0  0  0  0  0
   12.9014   -1.1709    1.9175 C   0  0  0  0  0  0  0  0  0  0  0  0
   11.5481   -1.4339    1.8869 C   0  0  0  0  0  0  0  0  0  0  0  0
   15.1360    0.1644    1.1754 Cl  0  0  0  0  0  0  0  0  0  0  0  0
   -1.7837   -0.0528   -1.3961 H   0  0  0  0  0  0  0  0  0  0  0  0
   -1.5810   -1.3234   -0.1662 H   0  0  0  0  0  0  0  0  0  0  0  0
   -2.1132    0.3052    0.3161 H   0  0  0  0  0  0  0  0  0  0  0  0
   -0.3285    2.2654    0.1730 H   0  0  0  0  0  0  0  0  0  0  0  0
    1.2056    1.8716   -0.6391 H   0  0  0  0  0  0  0  0  0  0  0  0
   -0.3251    1.7982   -1.5445 H   0  0  0  0  0  0  0  0  0  0  0  0
    1.9893    1.0506    0.6168 H   0  0  0  0  0  0  0  0  0  0  0  0
    4.4057    1.5144    0.6837 H   0  0  0  0  0  0  0  0  0  0  0  0
    5.0418   -1.3078   -2.4503 H   0  0  0  0  0  0  0  0  0  0  0  0
    2.6280   -1.7856   -2.5158 H   0  0  0  0  0  0  0  0  0  0  0  0
    6.7760    0.2701   -1.8283 H   0  0  0  0  0  0  0  0  0  0  0  0
    6.5105    1.4481   -0.5207 H   0  0  0  0  0  0  0  0  0  0  0  0
    6.5965   -0.3844    1.1476 H   0  0  0  0  0  0  0  0  0  0  0  0
    6.8620   -1.5624   -0.1601 H   0  0  0  0  0  0  0  0  0  0  0  0
    8.8359    0.4478   -0.3588 H   0  0  0  0  0  0  0  0  0  0  0  0
   10.6145    0.9015   -0.3933 H   0  0  0  0  0  0  0  0  0  0  0  0
   13.0288    1.3620   -0.3164 H   0  0  0  0  0  0  0  0  0  0  0  0
   13.5481   -1.7478    2.5619 H   0  0  0  0  0  0  0  0  0  0  0  0
   11.1346   -2.2157    2.5068 H   0  0  0  0  0  0  0  0  0  0  0  0
  1  2  1  0  0  0  0
  1 26  1  0  0  0  0
  1 27  1  0  0  0  0
  1 28  1  0  0  0  0
  2  3  1  0  0  0  0
  2  4  1  0  0  0  0
  2  7  1  0  0  0  0
  3 29  1  0  0  0  0
  3 30  1  0  0  0  0
  3 31  1  0  0  0  0
  4  5  2  0  0  0  0
  4  6  1  0  0  0  0
  7  8  1  0  0  0  0
  8 13  2  0  0  0  0
  8  9  1  0  0  0  0
  9 10  2  0  0  0  0
  9 32  1  0  0  0  0
 10 11  1  0  0  0  0
 10 33  1  0  0  0  0
 11 12  2  0  0  0  0
 11 14  1  0  0  0  0
 12 13  1  0  0  0  0
 12 34  1  0  0  0  0
 13 35  1  0  0  0  0
 14 15  1  0  0  0  0
 14 36  1  0  0  0  0
 14 37  1  0  0  0  0
 15 16  1  0  0  0  0
 15 38  1  0  0  0  0
 15 39  1  0  0  0  0
 16 17  1  0  0  0  0
 16 40  1  0  0  0  0
 17 18  2  0  0  0  0
 17 19  1  0  0  0  0
 19 24  2  0  0  0  0
 19 20  1  0  0  0  0
 20 21  2  0  0  0  0
 20 41  1  0  0  0  0
 21 22  1  0  0  0  0
 21 42  1  0  0  0  0
 22 23  2  0  0  0  0
 22 25  1  0  0  0  0
 23 24  1  0  0  0  0
 23 43  1  0  0  0  0
 24 44  1  0  0  0  0
M  END
$$$$
