ZINC04213101
 OpenBabel08292219463D

 55 57  0  0  1  0  0  0  0  0999 V2000
    1.4923   -2.0764   -0.4258 C   0  0  0  0  0  0  0  0  0  0  0  0
    0.8008   -1.9170    0.8605 N   0  3  2  0  0  0  0  0  0  0  0  0
   -0.5903   -2.3653    0.7253 C   0  0  0  0  0  0  0  0  0  0  0  0
   -1.2926   -2.2776    2.0820 C   0  0  0  0  0  0  0  0  0  0  0  0
   -1.2675   -0.8264    2.5707 C   0  0  0  0  0  0  0  0  0  0  0  0
    0.1849   -0.3455    2.6368 C   0  0  0  0  0  0  0  0  0  0  0  0
    0.8324   -0.5048    1.2595 C   0  0  1  0  0  0  0  0  0  0  0  0
    0.2842    0.0909    0.5297 H   0  0  0  0  0  0  0  0  0  0  0  0
    2.2840   -0.0251    1.3206 C   0  0  0  0  0  0  0  0  0  0  0  0
    2.3156    1.4583    1.6937 C   0  0  0  0  0  0  0  0  0  0  0  0
    3.7343    1.9625    1.6286 C   0  0  0  0  0  0  0  0  0  0  0  0
    4.5106    1.9922    2.7708 C   0  0  0  0  0  0  0  0  0  0  0  0
    5.8121    2.4551    2.7120 C   0  0  0  0  0  0  0  0  0  0  0  0
    6.3411    2.8898    1.5103 C   0  0  0  0  0  0  0  0  0  0  0  0
    5.5705    2.8623    0.3648 C   0  0  0  0  0  0  0  0  0  0  0  0
    4.2644    2.3925    0.4193 C   0  0  0  0  0  0  0  0  0  0  0  0
    3.4830    2.3583   -0.7401 N   0  0  0  0  0  0  0  0  0  0  0  0
    3.6275    3.3148   -1.6785 C   0  0  0  0  0  0  0  0  0  0  0  0
    4.4858    4.1667   -1.5513 O   0  0  0  0  0  0  0  0  0  0  0  0
    2.7440    3.3283   -2.8605 C   0  0  0  0  0  0  0  0  0  0  0  0
    1.7532    2.3536   -3.0057 C   0  0  0  0  0  0  0  0  0  0  0  0
    0.9308    2.3696   -4.1101 C   0  0  0  0  0  0  0  0  0  0  0  0
    1.0855    3.3533   -5.0799 C   0  0  0  0  0  0  0  0  0  0  0  0
    2.0698    4.3246   -4.9392 C   0  0  0  0  0  0  0  0  0  0  0  0
    2.8922    4.3192   -3.8347 C   0  0  0  0  0  0  0  0  0  0  0  0
    0.2737    3.3651   -6.1673 O   0  0  0  0  0  0  0  0  0  0  0  0
    0.4872    4.4039   -7.1251 C   0  0  0  0  0  0  0  0  0  0  0  0
    2.5063   -1.6851   -0.3441 H   0  0  0  0  0  0  0  0  0  0  0  0
    1.5308   -3.1334   -0.6890 H   0  0  0  0  0  0  0  0  0  0  0  0
    0.9527   -1.5290   -1.1986 H   0  0  0  0  0  0  0  0  0  0  0  0
   -1.1082   -1.7300    0.0068 H   0  0  0  0  0  0  0  0  0  0  0  0
   -0.6066   -3.3972    0.3743 H   0  0  0  0  0  0  0  0  0  0  0  0
   -2.3259   -2.6092    1.9791 H   0  0  0  0  0  0  0  0  0  0  0  0
   -0.7757   -2.9128    2.8012 H   0  0  0  0  0  0  0  0  0  0  0  0
   -1.8282   -0.1988    1.8779 H   0  0  0  0  0  0  0  0  0  0  0  0
   -1.7164   -0.7680    3.5622 H   0  0  0  0  0  0  0  0  0  0  0  0
    0.2077    0.7040    2.9305 H   0  0  0  0  0  0  0  0  0  0  0  0
    0.7325   -0.9406    3.3675 H   0  0  0  0  0  0  0  0  0  0  0  0
    2.8254   -0.6003    2.0717 H   0  0  0  0  0  0  0  0  0  0  0  0
    2.7541   -0.1651    0.3472 H   0  0  0  0  0  0  0  0  0  0  0  0
    1.6973    2.0220    0.9951 H   0  0  0  0  0  0  0  0  0  0  0  0
    1.9304    1.5869    2.7052 H   0  0  0  0  0  0  0  0  0  0  0  0
    4.1004    1.6538    3.7108 H   0  0  0  0  0  0  0  0  0  0  0  0
    6.4169    2.4776    3.6065 H   0  0  0  0  0  0  0  0  0  0  0  0
    7.3579    3.2515    1.4679 H   0  0  0  0  0  0  0  0  0  0  0  0
    5.9842    3.2020   -0.5733 H   0  0  0  0  0  0  0  0  0  0  0  0
    2.8370    1.6462   -0.8688 H   0  0  0  0  0  0  0  0  0  0  0  0
    1.6328    1.5885   -2.2530 H   0  0  0  0  0  0  0  0  0  0  0  0
    0.1649    1.6167   -4.2231 H   0  0  0  0  0  0  0  0  0  0  0  0
    2.1868    5.0872   -5.6949 H   0  0  0  0  0  0  0  0  0  0  0  0
    3.6538    5.0769   -3.7239 H   0  0  0  0  0  0  0  0  0  0  0  0
    1.5016    4.3332   -7.5177 H   0  0  0  0  0  0  0  0  0  0  0  0
   -0.2267    4.2974   -7.9418 H   0  0  0  0  0  0  0  0  0  0  0  0
    0.3497    5.3734   -6.6463 H   0  0  0  0  0  0  0  0  0  0  0  0
    1.2649   -2.4742    1.5620 H   0  0  0  0  0  0  0  0  0  0  0  0
  1  2  1  0  0  0  0
  1 28  1  0  0  0  0
  1 29  1  0  0  0  0
  1 30  1  0  0  0  0
  2  7  1  0  0  0  0
  2  3  1  0  0  0  0
  2 55  1  1  0  0  0
  3  4  1  0  0  0  0
  3 31  1  0  0  0  0
  3 32  1  0  0  0  0
  4  5  1  0  0  0  0
  4 33  1  0  0  0  0
  4 34  1  0  0  0  0
  5  6  1  0  0  0  0
  5 35  1  0  0  0  0
  5 36  1  0  0  0  0
  6  7  1  0  0  0  0
  6 37  1  0  0  0  0
  6 38  1  0  0  0  0
  7  8  1  6  0  0  0
  7  9  1  0  0  0  0
  9 10  1  0  0  0  0
  9 39  1  0  0  0  0
  9 40  1  0  0  0  0
 10 11  1  0  0  0  0
 10 41  1  0  0  0  0
 10 42  1  0  0  0  0
 11 16  2  0  0  0  0
 11 12  1  0  0  0  0
 12 13  2  0  0  0  0
 12 43  1  0  0  0  0
 13 14  1  0  0  0  0
 13 44  1  0  0  0  0
 14 15  2  0  0  0  0
 14 45  1  0  0  0  0
 15 16  1  0  0  0  0
 15 46  1  0  0  0  0
 16 17  1  0  0  0  0
 17 18  1  0  0  0  0
 17 47  1  0  0  0  0
 18 19  2  0  0  0  0
 18 20  1  0  0  0  0
 20 25  2  0  0  0  0
 20 21  1  0  0  0  0
 21 22  2  0  0  0  0
 21 48  1  0  0  0  0
 22 23  1  0  0  0  0
 22 49  1  0  0  0  0
 23 24  2  0  0  0  0
 23 26  1  0  0  0  0
 24 25  1  0  0  0  0
 24 50  1  0  0  0  0
 25 51  1  0  0  0  0
 26 27  1  0  0  0  0
 27 52  1  0  0  0  0
 27 53  1  0  0  0  0
 27 54  1  0  0  0  0
M  CHG  1   2   1
M  END
$$$$
