ZINC01535101
 OpenBabel08292219463D

 60 61  0  0  1  0  0  0  0  0999 V2000
   -0.0187    1.5258    0.0104 C   0  0  0  0  0  0  0  0  0  0  0  0
    0.0021   -0.0041    0.0020 C   0  0  0  0  0  0  0  0  0  0  0  0
    0.7421   -0.5109    1.2415 C   0  0  0  0  0  0  0  0  0  0  0  0
   -1.4117   -0.5257    0.0127 C   0  0  0  0  0  0  0  0  0  0  0  0
   -1.8760   -1.3353   -1.0280 C   0  0  0  0  0  0  0  0  0  0  0  0
   -3.2069   -1.7971   -0.9689 C   0  0  0  0  0  0  0  0  0  0  0  0
   -3.9618   -1.4454    0.0684 N   0  0  0  0  0  0  0  0  0  0  0  0
   -3.4757   -0.6762    1.0295 C   0  0  0  0  0  0  0  0  0  0  0  0
   -2.2276   -0.2284    1.0086 N   0  0  0  0  0  0  0  0  0  0  0  0
   -4.2934   -0.3326    2.0912 N   0  0  0  0  0  0  0  0  0  0  0  0
   -3.7783    0.5177    3.1673 C   0  0  0  0  0  0  0  0  0  0  0  0
   -5.8545   -0.8825    2.1458 S   0  0  0  0  0  0  0  0  0  0  0  0
   -6.5501    0.0779    2.9287 O   0  0  0  0  0  0  0  0  0  0  0  0
   -6.2087   -1.1036    0.7875 O   0  0  0  0  0  0  0  0  0  0  0  0
   -5.7616   -2.4623    3.0324 C   0  0  0  0  0  0  0  0  0  0  0  0
   -3.7545   -2.6574   -2.0425 C   0  0  0  0  0  0  0  0  0  0  0  0
   -3.3515   -2.4685   -3.3646 C   0  0  0  0  0  0  0  0  0  0  0  0
   -3.8641   -3.2727   -4.3609 C   0  0  0  0  0  0  0  0  0  0  0  0
   -4.7781   -4.2672   -4.0503 C   0  0  0  0  0  0  0  0  0  0  0  0
   -5.1816   -4.4588   -2.7383 C   0  0  0  0  0  0  0  0  0  0  0  0
   -4.6707   -3.6632   -1.7342 C   0  0  0  0  0  0  0  0  0  0  0  0
   -5.2778   -5.0522   -5.0298 F   0  0  0  0  0  0  0  0  0  0  0  0
   -0.9973   -1.6965   -2.1576 C   0  0  0  0  0  0  0  0  0  0  0  0
   -0.8837   -2.9650   -2.5306 C   0  0  0  0  0  0  0  0  0  0  0  0
    0.0134   -3.3337   -3.6840 C   0  0  2  0  0  0  0  0  0  0  0  0
   -0.5894   -3.7311   -4.5006 H   0  0  0  0  0  0  0  0  0  0  0  0
    1.0187   -4.3938   -3.2295 C   0  0  0  0  0  0  0  0  0  0  0  0
    1.8469   -4.8587   -4.4290 C   0  0  2  0  0  0  0  0  0  0  0  0
    1.1800   -5.2028   -5.2196 H   0  0  0  0  0  0  0  0  0  0  0  0
    2.7650   -6.0054   -4.0012 C   0  0  0  0  0  0  0  0  0  0  0  0
    3.4904   -6.5447   -5.2069 C   0  0  0  0  0  0  0  0  0  0  0  0
    3.2916   -6.0571   -6.3066 O   0  0  0  0  0  0  0  0  0  0  0  0
    4.2762   -7.4687   -5.0828 O   0  0  0  0  0  1  0  0  0  0  0  0
    2.6373   -3.7708   -4.9126 O   0  0  0  0  0  0  0  0  0  0  0  0
    0.7154   -2.1723   -4.1317 O   0  0  0  0  0  0  0  0  0  0  0  0
    1.0039    1.9031    0.0027 H   0  0  0  0  0  0  0  0  0  0  0  0
   -0.5459    1.8868   -0.8726 H   0  0  0  0  0  0  0  0  0  0  0  0
   -0.5289    1.8773    0.9072 H   0  0  0  0  0  0  0  0  0  0  0  0
    0.5123   -0.3556   -0.8948 H   0  0  0  0  0  0  0  0  0  0  0  0
    0.2319   -0.1594    2.1383 H   0  0  0  0  0  0  0  0  0  0  0  0
    0.7568   -1.6008    1.2356 H   0  0  0  0  0  0  0  0  0  0  0  0
    1.7647   -0.1336    1.2338 H   0  0  0  0  0  0  0  0  0  0  0  0
   -3.9626    1.5639    2.9234 H   0  0  0  0  0  0  0  0  0  0  0  0
   -4.2826    0.2679    4.1007 H   0  0  0  0  0  0  0  0  0  0  0  0
   -2.7064    0.3539    3.2782 H   0  0  0  0  0  0  0  0  0  0  0  0
   -5.3578   -2.2954    4.0309 H   0  0  0  0  0  0  0  0  0  0  0  0
   -6.7594   -2.8939    3.1114 H   0  0  0  0  0  0  0  0  0  0  0  0
   -5.1117   -3.1471    2.4875 H   0  0  0  0  0  0  0  0  0  0  0  0
   -2.6396   -1.6936   -3.6076 H   0  0  0  0  0  0  0  0  0  0  0  0
   -3.5530   -3.1270   -5.3848 H   0  0  0  0  0  0  0  0  0  0  0  0
   -5.8943   -5.2348   -2.5013 H   0  0  0  0  0  0  0  0  0  0  0  0
   -4.9823   -3.8161   -0.7115 H   0  0  0  0  0  0  0  0  0  0  0  0
   -0.4469   -0.9285   -2.6806 H   0  0  0  0  0  0  0  0  0  0  0  0
   -1.4342   -3.7330   -2.0077 H   0  0  0  0  0  0  0  0  0  0  0  0
    1.6798   -3.9677   -2.4748 H   0  0  0  0  0  0  0  0  0  0  0  0
    0.4839   -5.2438   -2.8059 H   0  0  0  0  0  0  0  0  0  0  0  0
    3.4902   -5.6386   -3.2748 H   0  0  0  0  0  0  0  0  0  0  0  0
    2.1691   -6.7991   -3.5506 H   0  0  0  0  0  0  0  0  0  0  0  0
    3.2554   -3.4133   -4.2604 H   0  0  0  0  0  0  0  0  0  0  0  0
    1.2734   -1.7649   -3.4551 H   0  0  0  0  0  0  0  0  0  0  0  0
  1  2  1  0  0  0  0
  1 36  1  0  0  0  0
  1 37  1  0  0  0  0
  1 38  1  0  0  0  0
  2  3  1  0  0  0  0
  2  4  1  0  0  0  0
  2 39  1  0  0  0  0
  3 40  1  0  0  0  0
  3 41  1  0  0  0  0
  3 42  1  0  0  0  0
  4  9  2  0  0  0  0
  4  5  1  0  0  0  0
  5  6  2  0  0  0  0
  5 23  1  0  0  0  0
  6  7  1  0  0  0  0
  6 16  1  0  0  0  0
  7  8  2  0  0  0  0
  8  9  1  0  0  0  0
  8 10  1  0  0  0  0
 10 11  1  0  0  0  0
 10 12  1  0  0  0  0
 11 43  1  0  0  0  0
 11 44  1  0  0  0  0
 11 45  1  0  0  0  0
 12 13  2  0  0  0  0
 12 14  2  0  0  0  0
 12 15  1  0  0  0  0
 15 46  1  0  0  0  0
 15 47  1  0  0  0  0
 15 48  1  0  0  0  0
 16 21  2  0  0  0  0
 16 17  1  0  0  0  0
 17 18  2  0  0  0  0
 17 49  1  0  0  0  0
 18 19  1  0  0  0  0
 18 50  1  0  0  0  0
 19 20  2  0  0  0  0
 19 22  1  0  0  0  0
 20 21  1  0  0  0  0
 20 51  1  0  0  0  0
 21 52  1  0  0  0  0
 23 24  2  0  0  0  0
 23 53  1  0  0  0  0
 24 25  1  0  0  0  0
 24 54  1  0  0  0  0
 25 26  1  6  0  0  0
 25 27  1  0  0  0  0
 25 35  1  0  0  0  0
 27 28  1  0  0  0  0
 27 55  1  0  0  0  0
 27 56  1  0  0  0  0
 28 29  1  6  0  0  0
 28 30  1  0  0  0  0
 28 34  1  0  0  0  0
 30 31  1  0  0  0  0
 30 57  1  0  0  0  0
 30 58  1  0  0  0  0
 31 32  2  0  0  0  0
 31 33  1  0  0  0  0
 34 59  1  0  0  0  0
 35 60  1  0  0  0  0
M  END
$$$$
