ZINC18274777
 OpenBabel08292219463D

 20 20  0  0  0  0  0  0  0  0999 V2000
   -2.1938    1.4701    0.6085 C   0  0  0  0  0  0  0  0  0  0  0  0
   -2.1691   -0.0367    0.6077 C   0  0  0  0  0  0  0  0  0  0  0  0
   -3.0611   -0.6582    1.1456 O   0  0  0  0  0  0  0  0  0  0  0  0
   -1.1558   -0.6938    0.0094 N   0  0  0  0  0  0  0  0  0  0  0  0
   -1.0811   -2.0905    0.0916 C   0  0  0  0  0  0  0  0  0  0  0  0
    0.1554   -2.7160    0.1778 C   0  0  0  0  0  0  0  0  0  0  0  0
    0.2283   -4.0925    0.2593 C   0  0  0  0  0  0  0  0  0  0  0  0
   -0.9336   -4.8504    0.2546 C   0  0  0  0  0  0  0  0  0  0  0  0
   -2.1693   -4.2261    0.1680 C   0  0  0  0  0  0  0  0  0  0  0  0
   -2.2439   -2.8493    0.0927 C   0  0  0  0  0  0  0  0  0  0  0  0
   -0.8611   -6.2059    0.3344 O   0  0  0  0  0  0  0  0  0  0  0  0
   -3.0822    1.8186    1.1352 H   0  0  0  0  0  0  0  0  0  0  0  0
   -1.3026    1.8478    1.1098 H   0  0  0  0  0  0  0  0  0  0  0  0
   -2.2144    1.8337   -0.4188 H   0  0  0  0  0  0  0  0  0  0  0  0
   -0.4783   -0.1997   -0.4782 H   0  0  0  0  0  0  0  0  0  0  0  0
    1.0601   -2.1261    0.1808 H   0  0  0  0  0  0  0  0  0  0  0  0
    1.1901   -4.5792    0.3264 H   0  0  0  0  0  0  0  0  0  0  0  0
   -3.0735   -4.8168    0.1636 H   0  0  0  0  0  0  0  0  0  0  0  0
   -3.2062   -2.3631    0.0301 H   0  0  0  0  0  0  0  0  0  0  0  0
   -0.8763   -6.5480    1.2387 H   0  0  0  0  0  0  0  0  0  0  0  0
  1  2  1  0  0  0  0
  1 12  1  0  0  0  0
  1 13  1  0  0  0  0
  1 14  1  0  0  0  0
  2  3  2  0  0  0  0
  2  4  1  0  0  0  0
  4  5  1  0  0  0  0
  4 15  1  0  0  0  0
  5 10  2  0  0  0  0
  5  6  1  0  0  0  0
  6  7  2  0  0  0  0
  6 16  1  0  0  0  0
  7  8  1  0  0  0  0
  7 17  1  0  0  0  0
  8  9  2  0  0  0  0
  8 11  1  0  0  0  0
  9 10  1  0  0  0  0
  9 18  1  0  0  0  0
 10 19  1  0  0  0  0
 11 20  1  0  0  0  0
M  END
$$$$
