ZINC00000368
 OpenBabel08292219463D

 45 47  0  0  1  0  0  0  0  0999 V2000
   -0.1271    1.4586   -0.0425 C   0  0  0  0  0  0  0  0  0  0  0  0
    0.0021   -0.0041    0.0020 N   0  3  0  0  0  0  0  0  0  0  0  0
   -1.3242   -0.6405    0.2202 C   0  0  2  0  0  0  0  0  0  0  0  0
   -2.1006   -0.2009   -0.4059 H   0  0  0  0  0  0  0  0  0  0  0  0
   -1.6015   -0.4337    1.7270 C   0  0  0  0  0  0  0  0  0  0  0  0
   -0.2062   -0.2909    2.3698 C   0  0  0  0  0  0  0  0  0  0  0  0
    0.7875   -0.4244    1.1929 C   0  0  1  0  0  0  0  0  0  0  0  0
    1.6793    0.1858    1.3352 H   0  0  0  0  0  0  0  0  0  0  0  0
    1.1136   -1.9165    1.0199 C   0  0  0  0  0  0  0  0  0  0  0  0
   -0.1937   -2.7140    1.0289 C   0  0  1  0  0  0  0  0  0  0  0  0
   -1.1551   -2.1462   -0.0387 C   0  0  0  0  0  0  0  0  0  0  0  0
    0.0833   -4.0841    0.7319 O   0  0  0  0  0  0  0  0  0  0  0  0
   -0.7348   -5.0019    1.2707 C   0  0  0  0  0  0  0  0  0  0  0  0
   -1.6555   -4.6535    1.9711 O   0  0  0  0  0  0  0  0  0  0  0  0
   -0.5048   -6.4668    1.0018 C   0  0  1  0  0  0  0  0  0  0  0  0
   -0.4804   -6.6392   -0.0742 H   0  0  0  0  0  0  0  0  0  0  0  0
    0.8088   -6.8886    1.6081 C   0  0  0  0  0  0  0  0  0  0  0  0
    0.8676   -7.2646    2.9370 C   0  0  0  0  0  0  0  0  0  0  0  0
    2.0725   -7.6515    3.4932 C   0  0  0  0  0  0  0  0  0  0  0  0
    3.2185   -7.6629    2.7203 C   0  0  0  0  0  0  0  0  0  0  0  0
    3.1596   -7.2878    1.3911 C   0  0  0  0  0  0  0  0  0  0  0  0
    1.9538   -6.9049    0.8339 C   0  0  0  0  0  0  0  0  0  0  0  0
   -1.5643   -7.2297    1.5826 O   0  0  0  0  0  0  0  0  0  0  0  0
    0.6235   -0.5058   -1.2309 C   0  0  0  0  0  0  0  0  0  0  0  0
    0.8638    1.9094   -0.0961 H   0  0  0  0  0  0  0  0  0  0  0  0
   -0.7049    1.7457   -0.9210 H   0  0  0  0  0  0  0  0  0  0  0  0
   -0.6361    1.8059    0.8567 H   0  0  0  0  0  0  0  0  0  0  0  0
   -2.1861    0.4727    1.8842 H   0  0  0  0  0  0  0  0  0  0  0  0
   -2.1223   -1.2981    2.1390 H   0  0  0  0  0  0  0  0  0  0  0  0
   -0.1047    0.6858    2.8429 H   0  0  0  0  0  0  0  0  0  0  0  0
   -0.0408   -1.0850    3.0978 H   0  0  0  0  0  0  0  0  0  0  0  0
    1.6285   -2.0702    0.0716 H   0  0  0  0  0  0  0  0  0  0  0  0
    1.7495   -2.2487    1.8406 H   0  0  0  0  0  0  0  0  0  0  0  0
   -0.6547   -2.6434    2.0141 H   0  0  0  0  0  0  0  0  0  0  0  0
   -2.1225   -2.6416    0.0432 H   0  0  0  0  0  0  0  0  0  0  0  0
   -0.7469   -2.3013   -1.0375 H   0  0  0  0  0  0  0  0  0  0  0  0
   -0.0278   -7.2557    3.5409 H   0  0  0  0  0  0  0  0  0  0  0  0
    2.1186   -7.9446    4.5316 H   0  0  0  0  0  0  0  0  0  0  0  0
    4.1601   -7.9646    3.1550 H   0  0  0  0  0  0  0  0  0  0  0  0
    4.0550   -7.2964    0.7874 H   0  0  0  0  0  0  0  0  0  0  0  0
    1.9071   -6.6154   -0.2056 H   0  0  0  0  0  0  0  0  0  0  0  0
   -1.6454   -7.1247    2.5404 H   0  0  0  0  0  0  0  0  0  0  0  0
    1.6154   -0.0677   -1.3421 H   0  0  0  0  0  0  0  0  0  0  0  0
    0.7094   -1.5911   -1.1789 H   0  0  0  0  0  0  0  0  0  0  0  0
    0.0069   -0.2307   -2.0866 H   0  0  0  0  0  0  0  0  0  0  0  0
  1  2  1  0  0  0  0
  1 25  1  0  0  0  0
  1 26  1  0  0  0  0
  1 27  1  0  0  0  0
  2  7  1  0  0  0  0
  2  3  1  0  0  0  0
  2 24  1  0  0  0  0
  3  4  1  6  0  0  0
  3 11  1  0  0  0  0
  3  5  1  0  0  0  0
  5  6  1  0  0  0  0
  5 28  1  0  0  0  0
  5 29  1  0  0  0  0
  6  7  1  0  0  0  0
  6 30  1  0  0  0  0
  6 31  1  0  0  0  0
  7  8  1  1  0  0  0
  7  9  1  0  0  0  0
  9 10  1  0  0  0  0
  9 32  1  0  0  0  0
  9 33  1  0  0  0  0
 10 11  1  0  0  0  0
 10 12  1  0  0  0  0
 10 34  1  1  0  0  0
 11 35  1  0  0  0  0
 11 36  1  0  0  0  0
 12 13  1  0  0  0  0
 13 14  2  0  0  0  0
 13 15  1  0  0  0  0
 15 16  1  6  0  0  0
 15 17  1  0  0  0  0
 15 23  1  0  0  0  0
 17 22  2  0  0  0  0
 17 18  1  0  0  0  0
 18 19  2  0  0  0  0
 18 37  1  0  0  0  0
 19 20  1  0  0  0  0
 19 38  1  0  0  0  0
 20 21  2  0  0  0  0
 20 39  1  0  0  0  0
 21 22  1  0  0  0  0
 21 40  1  0  0  0  0
 22 41  1  0  0  0  0
 23 42  1  0  0  0  0
 24 43  1  0  0  0  0
 24 44  1  0  0  0  0
 24 45  1  0  0  0  0
M  CHG  1   2   1
M  END
$$$$
