ZINC22059926
 OpenBabel08292219463D

 48 51  0  0  1  0  0  0  0  0999 V2000
   -0.5488    1.7442    1.7943 C   0  0  0  0  0  0  0  0  0  0  0  0
   -0.4571    0.3426    1.5316 O   0  0  0  0  0  0  0  0  0  0  0  0
   -1.7106   -0.3095    1.4399 N   0  0  0  0  0  0  0  0  0  0  0  0
   -1.7624   -1.5667    1.2075 C   0  0  0  0  0  0  0  0  0  0  0  0
   -0.5898   -2.5045    1.0124 C   0  0  0  0  0  0  0  0  0  0  0  0
   -1.1014   -3.8680    1.2305 N   0  0  0  0  0  0  0  0  0  0  0  0
   -2.5123   -3.8483    0.8050 C   0  0  0  0  0  0  0  0  0  0  0  0
   -3.0100   -2.4183    1.0785 C   0  0  2  0  0  0  0  0  0  0  0  0
   -3.5837   -2.3881    2.0048 H   0  0  0  0  0  0  0  0  0  0  0  0
   -3.8662   -1.9273   -0.0905 C   0  0  0  0  0  0  0  0  0  0  0  0
   -4.3867   -0.5874    0.2125 N   0  3  0  0  0  0  0  0  0  0  0  0
   -0.3984   -4.9508    1.7333 C   0  0  0  0  0  0  0  0  0  0  0  0
    0.9430   -4.7877    2.0944 C   0  0  0  0  0  0  0  0  0  0  0  0
    1.6390   -5.8574    2.5915 C   0  0  0  0  0  0  0  0  0  0  0  0
    0.9697   -7.0810    2.7180 C   0  0  0  0  0  0  0  0  0  0  0  0
    1.6523   -8.2730    3.2445 C   0  0  0  0  0  0  0  0  0  0  0  0
    2.8211   -8.2365    3.5879 O   0  0  0  0  0  0  0  0  0  0  0  0
    0.8616   -9.5132    3.3392 C   0  0  0  0  0  0  0  0  0  0  0  0
   -0.4589   -9.4914    2.9348 C   0  0  0  0  0  0  0  0  0  0  0  0
   -1.0420   -8.3834    2.4604 N   0  0  0  0  0  0  0  0  0  0  0  0
   -0.3797   -7.1832    2.3382 C   0  0  0  0  0  0  0  0  0  0  0  0
   -1.0115   -6.1149    1.8666 N   0  0  0  0  0  0  0  0  0  0  0  0
   -2.4478   -8.4515    2.0539 C   0  0  0  0  0  0  0  0  0  0  0  0
   -3.2540   -9.6726    2.5009 C   0  0  0  0  0  0  0  0  0  0  0  0
   -2.8376   -9.5253    1.0361 C   0  0  0  0  0  0  0  0  0  0  0  0
    1.4656  -10.7472    3.8528 C   0  0  0  0  0  0  0  0  0  0  0  0
    0.7983  -11.7707    3.9265 O   0  0  0  0  0  0  0  0  0  0  0  0
    2.6371  -10.7536    4.2077 O   0  0  0  0  0  1  0  0  0  0  0  0
    1.5463   -3.5871    1.9536 F   0  0  0  0  0  0  0  0  0  0  0  0
    0.4532    2.1698    1.8499 H   0  0  0  0  0  0  0  0  0  0  0  0
   -1.1053    2.2286    0.9919 H   0  0  0  0  0  0  0  0  0  0  0  0
   -1.0642    1.9034    2.7414 H   0  0  0  0  0  0  0  0  0  0  0  0
   -0.2002   -2.4095   -0.0011 H   0  0  0  0  0  0  0  0  0  0  0  0
    0.1931   -2.2792    1.7366 H   0  0  0  0  0  0  0  0  0  0  0  0
   -2.5881   -4.0806   -0.2572 H   0  0  0  0  0  0  0  0  0  0  0  0
   -3.0914   -4.5633    1.3893 H   0  0  0  0  0  0  0  0  0  0  0  0
   -3.2578   -1.8850   -0.9939 H   0  0  0  0  0  0  0  0  0  0  0  0
   -4.6985   -2.6140   -0.2449 H   0  0  0  0  0  0  0  0  0  0  0  0
   -4.9499   -0.6266    1.0488 H   0  0  0  0  0  0  0  0  0  0  0  0
   -3.6162    0.0483    0.3554 H   0  0  0  0  0  0  0  0  0  0  0  0
    2.6758   -5.7600    2.8778 H   0  0  0  0  0  0  0  0  0  0  0  0
   -1.0406  -10.3988    3.0031 H   0  0  0  0  0  0  0  0  0  0  0  0
   -2.9689   -7.4956    2.0016 H   0  0  0  0  0  0  0  0  0  0  0  0
   -2.7385  -10.4253    3.0974 H   0  0  0  0  0  0  0  0  0  0  0  0
   -4.3058   -9.5202    2.7429 H   0  0  0  0  0  0  0  0  0  0  0  0
   -3.6154   -9.2759    0.3143 H   0  0  0  0  0  0  0  0  0  0  0  0
   -2.0481  -10.1810    0.6689 H   0  0  0  0  0  0  0  0  0  0  0  0
   -4.9513   -0.2636   -0.5584 H   0  0  0  0  0  0  0  0  0  0  0  0
  1  2  1  0  0  0  0
  1 30  1  0  0  0  0
  1 31  1  0  0  0  0
  1 32  1  0  0  0  0
  2  3  1  0  0  0  0
  3  4  2  0  0  0  0
  4  8  1  0  0  0  0
  4  5  1  0  0  0  0
  5  6  1  0  0  0  0
  5 33  1  0  0  0  0
  5 34  1  0  0  0  0
  6  7  1  0  0  0  0
  6 12  1  0  0  0  0
  7  8  1  0  0  0  0
  7 35  1  0  0  0  0
  7 36  1  0  0  0  0
  8  9  1  1  0  0  0
  8 10  1  0  0  0  0
 10 11  1  0  0  0  0
 10 37  1  0  0  0  0
 10 38  1  0  0  0  0
 11 39  1  0  0  0  0
 11 40  1  0  0  0  0
 11 48  1  0  0  0  0
 12 22  2  0  0  0  0
 12 13  1  0  0  0  0
 13 14  2  0  0  0  0
 13 29  1  0  0  0  0
 14 15  1  0  0  0  0
 14 41  1  0  0  0  0
 15 21  2  0  0  0  0
 15 16  1  0  0  0  0
 16 17  2  0  0  0  0
 16 18  1  0  0  0  0
 18 19  2  0  0  0  0
 18 26  1  0  0  0  0
 19 20  1  0  0  0  0
 19 42  1  0  0  0  0
 20 21  1  0  0  0  0
 20 23  1  0  0  0  0
 21 22  1  0  0  0  0
 23 25  1  0  0  0  0
 23 24  1  0  0  0  0
 23 43  1  0  0  0  0
 24 25  1  0  0  0  0
 24 44  1  0  0  0  0
 24 45  1  0  0  0  0
 25 46  1  0  0  0  0
 25 47  1  0  0  0  0
 26 27  2  0  0  0  0
 26 28  1  0  0  0  0
M  CHG  1  11   1
M  END
$$$$
