ZINC03629271
 OpenBabel08292219463D

 26 27  0  0  1  0  0  0  0  0999 V2000
   -0.0164    1.3603    0.0095 C   0  0  0  0  0  0  0  0  0  0  0  0
    1.1568    2.0383    0.0020 C   0  0  0  0  0  0  0  0  0  0  0  0
    2.3661    1.3106   -0.0135 C   0  0  0  0  0  0  0  0  0  0  0  0
    2.3335   -0.0154   -0.0203 N   0  0  0  0  0  0  0  0  0  0  0  0
    1.1725   -0.6678   -0.0127 C   0  0  0  0  0  0  0  0  0  0  0  0
    1.1701   -1.8878   -0.0188 O   0  0  0  0  0  0  0  0  0  0  0  0
    0.0021   -0.0041    0.0020 N   0  0  0  0  0  0  0  0  0  0  0  0
   -1.2587   -0.7501    0.0105 C   0  0  2  0  0  0  0  0  0  0  0  0
   -1.3089   -1.3737    0.9031 H   0  0  0  0  0  0  0  0  0  0  0  0
   -1.3442   -1.6489   -1.2619 C   0  0  0  0  0  0  0  0  0  0  0  0
   -3.1741   -1.8990   -1.2962 S   0  0  0  0  0  0  0  0  0  0  0  0
   -3.6382   -0.4697   -0.2301 C   0  0  1  0  0  0  0  0  0  0  0  0
   -4.0794   -0.8115    0.7062 H   0  0  0  0  0  0  0  0  0  0  0  0
   -2.3605    0.1667    0.0013 O   0  0  0  0  0  0  0  0  0  0  0  0
   -4.5927    0.4718   -0.9671 C   0  0  0  0  0  0  0  0  0  0  0  0
   -3.9699    0.9393   -2.1653 O   0  0  0  0  0  0  0  0  0  0  0  0
    3.5724    1.9732   -0.0219 N   0  0  0  0  0  0  0  0  0  0  0  0
    1.1688    3.3892    0.0087 F   0  0  0  0  0  0  0  0  0  0  0  0
   -0.9554    1.8938    0.0258 H   0  0  0  0  0  0  0  0  0  0  0  0
   -0.9949   -1.1215   -2.1496 H   0  0  0  0  0  0  0  0  0  0  0  0
   -0.8133   -2.5908   -1.1240 H   0  0  0  0  0  0  0  0  0  0  0  0
   -5.5086   -0.0631   -1.2185 H   0  0  0  0  0  0  0  0  0  0  0  0
   -4.8319    1.3209   -0.3269 H   0  0  0  0  0  0  0  0  0  0  0  0
   -4.5192    1.5423   -2.6846 H   0  0  0  0  0  0  0  0  0  0  0  0
    3.5931    2.9429   -0.0172 H   0  0  0  0  0  0  0  0  0  0  0  0
    4.4018    1.4704   -0.0325 H   0  0  0  0  0  0  0  0  0  0  0  0
  1  7  1  0  0  0  0
  1  2  2  0  0  0  0
  1 19  1  0  0  0  0
  2  3  1  0  0  0  0
  2 18  1  0  0  0  0
  3  4  2  0  0  0  0
  3 17  1  0  0  0  0
  4  5  1  0  0  0  0
  5  6  2  0  0  0  0
  5  7  1  0  0  0  0
  7  8  1  0  0  0  0
  8  9  1  1  0  0  0
  8 14  1  0  0  0  0
  8 10  1  0  0  0  0
 10 11  1  0  0  0  0
 10 20  1  0  0  0  0
 10 21  1  0  0  0  0
 11 12  1  0  0  0  0
 12 13  1  1  0  0  0
 12 14  1  0  0  0  0
 12 15  1  0  0  0  0
 15 16  1  0  0  0  0
 15 22  1  0  0  0  0
 15 23  1  0  0  0  0
 16 24  1  0  0  0  0
 17 25  1  0  0  0  0
 17 26  1  0  0  0  0
M  END
$$$$
