ZINC20444132
 OpenBabel08292219463D

 45 47  0  0  1  0  0  0  0  0999 V2000
   -0.0190    1.5030    0.0179 C   0  0  0  0  0  0  0  0  0  0  0  0
    0.0016   -0.0039    0.0110 C   0  0  0  0  0  0  0  0  0  0  0  0
   -1.1455   -0.6873    0.0065 C   0  0  0  0  0  0  0  0  0  0  0  0
   -1.1255   -2.1485   -0.0001 C   0  0  0  0  0  0  0  0  0  0  0  0
   -2.3214   -2.7597    0.1095 C   0  0  0  0  0  0  0  0  0  0  0  0
   -2.4150   -4.1583    0.0364 N   0  0  0  0  0  0  0  0  0  0  0  0
   -1.3119   -5.1397    0.1995 C   0  0  1  0  0  0  0  0  0  0  0  0
   -1.0782   -5.4142    1.2281 H   0  0  0  0  0  0  0  0  0  0  0  0
   -2.2031   -6.1167   -0.5372 C   0  0  1  0  0  0  0  0  0  0  0  0
   -2.3340   -7.0708   -0.0265 H   0  0  0  0  0  0  0  0  0  0  0  0
   -3.2871   -5.1141   -0.2503 C   0  0  0  0  0  0  0  0  0  0  0  0
   -4.4989   -5.1622   -0.2725 O   0  0  0  0  0  0  0  0  0  0  0  0
   -1.8815   -6.2633   -1.9589 N   0  0  0  0  0  0  0  0  0  0  0  0
   -2.2072   -7.3975   -2.6100 C   0  0  0  0  0  0  0  0  0  0  0  0
   -2.7665   -8.2968   -2.0190 O   0  0  0  0  0  0  0  0  0  0  0  0
   -1.8763   -7.5483   -4.0725 C   0  0  1  0  0  0  0  0  0  0  0  0
   -2.0632   -6.6054   -4.5864 H   0  0  0  0  0  0  0  0  0  0  0  0
   -0.4245   -7.9233   -4.2230 C   0  0  0  0  0  0  0  0  0  0  0  0
   -0.0278   -9.2349   -4.0385 C   0  0  0  0  0  0  0  0  0  0  0  0
    1.3025   -9.5811   -4.1754 C   0  0  0  0  0  0  0  0  0  0  0  0
    2.2407   -8.6116   -4.4989 C   0  0  0  0  0  0  0  0  0  0  0  0
    1.8400   -7.2964   -4.6840 C   0  0  0  0  0  0  0  0  0  0  0  0
    0.5077   -6.9562   -4.5510 C   0  0  0  0  0  0  0  0  0  0  0  0
    3.5500   -8.9496   -4.6338 O   0  0  0  0  0  0  0  0  0  0  0  0
   -2.7172   -8.6005   -4.6588 N   0  0  0  0  0  0  0  0  0  0  0  0
    0.1085   -4.4768   -0.7352 S   0  0  0  0  0  0  0  0  0  0  0  0
    0.2185   -2.7887   -0.1335 C   0  0  0  0  0  0  0  0  0  0  0  0
   -3.5313   -1.9595    0.3065 C   0  0  0  0  0  0  0  0  0  0  0  0
   -4.2160   -1.6373   -0.6566 O   0  0  0  0  0  0  0  0  0  0  0  0
   -3.8589   -1.6122    1.4344 O   0  0  0  0  0  1  0  0  0  0  0  0
    1.0035    1.8804    0.0208 H   0  0  0  0  0  0  0  0  0  0  0  0
   -0.5367    1.8633   -0.8711 H   0  0  0  0  0  0  0  0  0  0  0  0
   -0.5389    1.8552    0.9088 H   0  0  0  0  0  0  0  0  0  0  0  0
    0.9443   -0.5310    0.0098 H   0  0  0  0  0  0  0  0  0  0  0  0
   -2.0882   -0.1602    0.0078 H   0  0  0  0  0  0  0  0  0  0  0  0
   -1.4342   -5.5441   -2.4316 H   0  0  0  0  0  0  0  0  0  0  0  0
   -0.7585   -9.9892   -3.7867 H   0  0  0  0  0  0  0  0  0  0  0  0
    1.6121  -10.6056   -4.0305 H   0  0  0  0  0  0  0  0  0  0  0  0
    2.5684   -6.5398   -4.9359 H   0  0  0  0  0  0  0  0  0  0  0  0
    0.1946   -5.9333   -4.6994 H   0  0  0  0  0  0  0  0  0  0  0  0
    3.7990   -9.2083   -5.5317 H   0  0  0  0  0  0  0  0  0  0  0  0
   -2.5622   -9.4853   -4.1992 H   0  0  0  0  0  0  0  0  0  0  0  0
   -3.6923   -8.3430   -4.6283 H   0  0  0  0  0  0  0  0  0  0  0  0
    0.8263   -2.1988   -0.8197 H   0  0  0  0  0  0  0  0  0  0  0  0
    0.7026   -2.8052    0.8430 H   0  0  0  0  0  0  0  0  0  0  0  0
  1  2  1  0  0  0  0
  1 31  1  0  0  0  0
  1 32  1  0  0  0  0
  1 33  1  0  0  0  0
  2  3  2  0  0  0  0
  2 34  1  0  0  0  0
  3  4  1  0  0  0  0
  3 35  1  0  0  0  0
  4 27  1  0  0  0  0
  4  5  2  0  0  0  0
  5  6  1  0  0  0  0
  5 28  1  0  0  0  0
  6 11  1  0  0  0  0
  6  7  1  0  0  0  0
  7  8  1  1  0  0  0
  7  9  1  0  0  0  0
  7 26  1  0  0  0  0
  9 10  1  1  0  0  0
  9 11  1  0  0  0  0
  9 13  1  0  0  0  0
 11 12  2  0  0  0  0
 13 14  1  0  0  0  0
 13 36  1  0  0  0  0
 14 15  2  0  0  0  0
 14 16  1  0  0  0  0
 16 17  1  6  0  0  0
 16 18  1  0  0  0  0
 16 25  1  0  0  0  0
 18 23  2  0  0  0  0
 18 19  1  0  0  0  0
 19 20  2  0  0  0  0
 19 37  1  0  0  0  0
 20 21  1  0  0  0  0
 20 38  1  0  0  0  0
 21 22  2  0  0  0  0
 21 24  1  0  0  0  0
 22 23  1  0  0  0  0
 22 39  1  0  0  0  0
 23 40  1  0  0  0  0
 24 41  1  0  0  0  0
 25 42  1  0  0  0  0
 25 43  1  0  0  0  0
 26 27  1  0  0  0  0
 27 44  1  0  0  0  0
 27 45  1  0  0  0  0
 28 29  2  0  0  0  0
 28 30  1  0  0  0  0
M  END
$$$$
