ZINC00057147
 OpenBabel08292219463D

 32 33  0  0  1  0  0  0  0  0999 V2000
   -0.0178    1.4608    0.0101 C   0  0  0  0  0  0  0  0  0  0  0  0
    0.0021   -0.0041    0.0020 N   0  0  0  0  0  0  0  0  0  0  0  0
   -1.1889   -0.7120    0.0039 C   0  0  0  0  0  0  0  0  0  0  0  0
   -1.1437   -2.1005   -0.0039 C   0  0  0  0  0  0  0  0  0  0  0  0
    0.1107   -2.7476   -0.0134 C   0  0  0  0  0  0  0  0  0  0  0  0
    0.1765   -3.9638   -0.0207 O   0  0  0  0  0  0  0  0  0  0  0  0
    1.2361   -2.0032   -0.0148 N   0  0  0  0  0  0  0  0  0  0  0  0
    1.1776   -0.6603   -0.0127 C   0  0  0  0  0  0  0  0  0  0  0  0
    2.2126   -0.0219   -0.0196 O   0  0  0  0  0  0  0  0  0  0  0  0
    2.5413   -2.6685   -0.0246 C   0  0  0  0  0  0  0  0  0  0  0  0
   -2.4557   -2.5297    0.0001 N   0  0  0  0  0  0  0  0  0  0  0  0
   -3.2306   -1.4275    0.0098 C   0  0  0  0  0  0  0  0  0  0  0  0
   -2.4766   -0.3579    0.0120 N   0  0  0  0  0  0  0  0  0  0  0  0
   -2.9179   -3.9199   -0.0060 C   0  0  0  0  0  0  0  0  0  0  0  0
   -2.9524   -4.4522    1.4280 C   0  0  2  0  0  0  0  0  0  0  0  0
   -1.9726   -4.3219    1.8875 H   0  0  0  0  0  0  0  0  0  0  0  0
   -3.3144   -5.9386    1.4117 C   0  0  0  0  0  0  0  0  0  0  0  0
   -3.2330   -6.4633    2.7384 O   0  0  0  0  0  0  0  0  0  0  0  0
   -3.9308   -3.7318    2.1801 O   0  0  0  0  0  0  0  0  0  0  0  0
    1.0048    1.8381    0.0023 H   0  0  0  0  0  0  0  0  0  0  0  0
   -0.5450    1.8219   -0.8730 H   0  0  0  0  0  0  0  0  0  0  0  0
   -0.5280    1.8123    0.9069 H   0  0  0  0  0  0  0  0  0  0  0  0
    2.8601   -2.8279   -1.0547 H   0  0  0  0  0  0  0  0  0  0  0  0
    3.2716   -2.0434    0.4891 H   0  0  0  0  0  0  0  0  0  0  0  0
    2.4632   -3.6292    0.4844 H   0  0  0  0  0  0  0  0  0  0  0  0
   -4.3106   -1.4268    0.0144 H   0  0  0  0  0  0  0  0  0  0  0  0
   -3.9185   -3.9683   -0.4356 H   0  0  0  0  0  0  0  0  0  0  0  0
   -2.2367   -4.5267   -0.6025 H   0  0  0  0  0  0  0  0  0  0  0  0
   -4.3296   -6.0612    1.0342 H   0  0  0  0  0  0  0  0  0  0  0  0
   -2.6193   -6.4748    0.7657 H   0  0  0  0  0  0  0  0  0  0  0  0
   -3.4502   -7.4033    2.8036 H   0  0  0  0  0  0  0  0  0  0  0  0
   -4.8285   -3.8029    1.8277 H   0  0  0  0  0  0  0  0  0  0  0  0
  1  2  1  0  0  0  0
  1 20  1  0  0  0  0
  1 21  1  0  0  0  0
  1 22  1  0  0  0  0
  2  8  1  0  0  0  0
  2  3  1  0  0  0  0
  3 13  1  0  0  0  0
  3  4  2  0  0  0  0
  4  5  1  0  0  0  0
  4 11  1  0  0  0  0
  5  6  2  0  0  0  0
  5  7  1  0  0  0  0
  7  8  1  0  0  0  0
  7 10  1  0  0  0  0
  8  9  2  0  0  0  0
 10 23  1  0  0  0  0
 10 24  1  0  0  0  0
 10 25  1  0  0  0  0
 11 12  1  0  0  0  0
 11 14  1  0  0  0  0
 12 13  2  0  0  0  0
 12 26  1  0  0  0  0
 14 15  1  0  0  0  0
 14 27  1  0  0  0  0
 14 28  1  0  0  0  0
 15 16  1  1  0  0  0
 15 17  1  0  0  0  0
 15 19  1  0  0  0  0
 17 18  1  0  0  0  0
 17 29  1  0  0  0  0
 17 30  1  0  0  0  0
 18 31  1  0  0  0  0
 19 32  1  0  0  0  0
M  END
$$$$
