ZINC01530697
 OpenBabel08292219463D

 52 55  0  0  1  0  0  0  0  0999 V2000
    3.1751    3.9957    0.6546 C   0  0  0  0  0  0  0  0  0  0  0  0
    2.2566    3.2865   -0.2461 N   0  3  1  0  0  0  0  0  0  0  0  0
    2.9839    2.8604   -1.4478 C   0  0  0  0  0  0  0  0  0  0  0  0
    2.0144    2.1926   -2.4254 C   0  0  0  0  0  0  0  0  0  0  0  0
    1.3787    0.9728   -1.7522 C   0  0  0  0  0  0  0  0  0  0  0  0
    0.6861    1.4179   -0.4609 C   0  0  0  0  0  0  0  0  0  0  0  0
    1.7047    2.1144    0.4439 C   0  0  2  0  0  0  0  0  0  0  0  0
    2.5112    1.4212    0.6833 H   0  0  0  0  0  0  0  0  0  0  0  0
    1.0172    2.5607    1.7358 C   0  0  0  0  0  0  0  0  0  0  0  0
    0.5179    1.3320    2.4986 C   0  0  0  0  0  0  0  0  0  0  0  0
   -0.2067    1.7623    3.6969 N   0  0  0  0  0  0  0  0  0  0  0  0
   -1.5768    1.9795    3.5767 C   0  0  0  0  0  0  0  0  0  0  0  0
   -2.1019    2.2735    2.3225 C   0  0  0  0  0  0  0  0  0  0  0  0
   -3.4579    2.4889    2.1663 C   0  0  0  0  0  0  0  0  0  0  0  0
   -4.3044    2.4133    3.2562 C   0  0  0  0  0  0  0  0  0  0  0  0
   -3.7934    2.1236    4.5080 C   0  0  0  0  0  0  0  0  0  0  0  0
   -2.4323    1.9087    4.6726 C   0  0  0  0  0  0  0  0  0  0  0  0
   -1.7980    1.5511    6.2764 S   0  0  0  0  0  0  0  0  0  0  0  0
   -0.0680    1.8478    6.1263 C   0  0  0  0  0  0  0  0  0  0  0  0
    0.5259    1.9174    4.8706 C   0  0  0  0  0  0  0  0  0  0  0  0
    1.8931    2.1526    4.7792 C   0  0  0  0  0  0  0  0  0  0  0  0
    2.6556    2.3074    5.9289 C   0  0  0  0  0  0  0  0  0  0  0  0
    2.0545    2.2277    7.1777 C   0  0  0  0  0  0  0  0  0  0  0  0
    0.6983    2.0065    7.2715 C   0  0  0  0  0  0  0  0  0  0  0  0
    4.3878    2.6049    5.8031 S   0  0  0  0  0  0  0  0  0  0  0  0
    4.9372    2.7342    7.5270 C   0  0  0  0  0  0  0  0  0  0  0  0
    3.9104    3.2946    1.0493 H   0  0  0  0  0  0  0  0  0  0  0  0
    3.6855    4.7861    0.1044 H   0  0  0  0  0  0  0  0  0  0  0  0
    2.6108    4.4326    1.4786 H   0  0  0  0  0  0  0  0  0  0  0  0
    3.4384    3.7292   -1.9240 H   0  0  0  0  0  0  0  0  0  0  0  0
    3.7630    2.1513   -1.1681 H   0  0  0  0  0  0  0  0  0  0  0  0
    1.2349    2.9009   -2.7060 H   0  0  0  0  0  0  0  0  0  0  0  0
    2.5567    1.8754   -3.3161 H   0  0  0  0  0  0  0  0  0  0  0  0
    0.6455    0.5266   -2.4240 H   0  0  0  0  0  0  0  0  0  0  0  0
    2.1522    0.2416   -1.5175 H   0  0  0  0  0  0  0  0  0  0  0  0
   -0.1210    2.1101   -0.7007 H   0  0  0  0  0  0  0  0  0  0  0  0
    0.2788    0.5468    0.0525 H   0  0  0  0  0  0  0  0  0  0  0  0
    1.7276    3.1088    2.3548 H   0  0  0  0  0  0  0  0  0  0  0  0
    0.1728    3.2060    1.4937 H   0  0  0  0  0  0  0  0  0  0  0  0
   -0.1486    0.7534    1.8590 H   0  0  0  0  0  0  0  0  0  0  0  0
    1.3680    0.7151    2.7900 H   0  0  0  0  0  0  0  0  0  0  0  0
   -1.4463    2.3341    1.4664 H   0  0  0  0  0  0  0  0  0  0  0  0
   -3.8576    2.7167    1.1892 H   0  0  0  0  0  0  0  0  0  0  0  0
   -5.3639    2.5805    3.1303 H   0  0  0  0  0  0  0  0  0  0  0  0
   -4.4550    2.0649    5.3596 H   0  0  0  0  0  0  0  0  0  0  0  0
    2.3641    2.2154    3.8093 H   0  0  0  0  0  0  0  0  0  0  0  0
    2.6474    2.3466    8.0724 H   0  0  0  0  0  0  0  0  0  0  0  0
    0.2315    1.9456    8.2436 H   0  0  0  0  0  0  0  0  0  0  0  0
    4.7172    1.8031    8.0493 H   0  0  0  0  0  0  0  0  0  0  0  0
    6.0108    2.9206    7.5532 H   0  0  0  0  0  0  0  0  0  0  0  0
    4.4136    3.5566    8.0145 H   0  0  0  0  0  0  0  0  0  0  0  0
    1.5043    3.9040   -0.5121 H   0  0  0  0  0  0  0  0  0  0  0  0
  1  2  1  0  0  0  0
  1 27  1  0  0  0  0
  1 28  1  0  0  0  0
  1 29  1  0  0  0  0
  2  7  1  0  0  0  0
  2  3  1  0  0  0  0
  2 52  1  6  0  0  0
  3  4  1  0  0  0  0
  3 30  1  0  0  0  0
  3 31  1  0  0  0  0
  4  5  1  0  0  0  0
  4 32  1  0  0  0  0
  4 33  1  0  0  0  0
  5  6  1  0  0  0  0
  5 34  1  0  0  0  0
  5 35  1  0  0  0  0
  6  7  1  0  0  0  0
  6 36  1  0  0  0  0
  6 37  1  0  0  0  0
  7  8  1  1  0  0  0
  7  9  1  0  0  0  0
  9 10  1  0  0  0  0
  9 38  1  0  0  0  0
  9 39  1  0  0  0  0
 10 11  1  0  0  0  0
 10 40  1  0  0  0  0
 10 41  1  0  0  0  0
 11 20  1  0  0  0  0
 11 12  1  0  0  0  0
 12 17  2  0  0  0  0
 12 13  1  0  0  0  0
 13 14  2  0  0  0  0
 13 42  1  0  0  0  0
 14 15  1  0  0  0  0
 14 43  1  0  0  0  0
 15 16  2  0  0  0  0
 15 44  1  0  0  0  0
 16 17  1  0  0  0  0
 16 45  1  0  0  0  0
 17 18  1  0  0  0  0
 18 19  1  0  0  0  0
 19 24  2  0  0  0  0
 19 20  1  0  0  0  0
 20 21  2  0  0  0  0
 21 22  1  0  0  0  0
 21 46  1  0  0  0  0
 22 23  2  0  0  0  0
 22 25  1  0  0  0  0
 23 24  1  0  0  0  0
 23 47  1  0  0  0  0
 24 48  1  0  0  0  0
 25 26  1  0  0  0  0
 26 49  1  0  0  0  0
 26 50  1  0  0  0  0
 26 51  1  0  0  0  0
M  CHG  1   2   1
M  END
$$$$
