ZINC01997127
 OpenBabel08292219463D

 32 34  0  0  1  0  0  0  0  0999 V2000
   -0.0167    1.3778    0.0096 C   0  0  0  0  0  0  0  0  0  0  0  0
    1.1640    2.0927    0.0022 C   0  0  0  0  0  0  0  0  0  0  0  0
    2.3871    1.4197   -0.0131 C   0  0  0  0  0  0  0  0  0  0  0  0
    2.4016    0.0237   -0.0208 C   0  0  0  0  0  0  0  0  0  0  0  0
    1.2153   -0.6856   -0.0130 C   0  0  0  0  0  0  0  0  0  0  0  0
    0.0021   -0.0041    0.0020 C   0  0  0  0  0  0  0  0  0  0  0  0
    1.2342   -2.0825   -0.0206 N   0  0  0  0  0  0  0  0  0  0  0  0
    3.8522   -0.3885   -0.0364 C   0  0  0  0  0  0  0  0  0  0  0  0
    4.6322    0.8544   -0.0369 N   0  0  0  0  0  0  0  0  0  0  0  0
    3.7836    1.8968   -0.0234 C   0  0  0  0  0  0  0  0  0  0  0  0
    4.1186    3.0652   -0.0199 O   0  0  0  0  0  0  0  0  0  0  0  0
    6.0944    0.9443   -0.0489 C   0  0  1  0  0  0  0  0  0  0  0  0
    6.5210   -0.0587   -0.0576 H   0  0  0  0  0  0  0  0  0  0  0  0
    6.5504    1.7055   -1.2983 C   0  0  0  0  0  0  0  0  0  0  0  0
    8.0708    1.8848   -1.2327 C   0  0  0  0  0  0  0  0  0  0  0  0
    8.4323    2.5709    0.0582 C   0  0  0  0  0  0  0  0  0  0  0  0
    9.4236    3.2672    0.1039 O   0  0  0  0  0  0  0  0  0  0  0  0
    7.6785    2.4268    1.1584 N   0  0  0  0  0  0  0  0  0  0  0  0
    6.5634    1.6801    1.1784 C   0  0  0  0  0  0  0  0  0  0  0  0
    5.9208    1.5973    2.2029 O   0  0  0  0  0  0  0  0  0  0  0  0
   -0.9610    1.9016    0.0260 H   0  0  0  0  0  0  0  0  0  0  0  0
    1.1417    3.1725    0.0079 H   0  0  0  0  0  0  0  0  0  0  0  0
   -0.9263   -0.5559    0.0079 H   0  0  0  0  0  0  0  0  0  0  0  0
    2.0806   -2.5561   -0.0314 H   0  0  0  0  0  0  0  0  0  0  0  0
    0.4008   -2.5789   -0.0151 H   0  0  0  0  0  0  0  0  0  0  0  0
    4.0842   -0.9760    0.8519 H   0  0  0  0  0  0  0  0  0  0  0  0
    4.0677   -0.9664   -0.9351 H   0  0  0  0  0  0  0  0  0  0  0  0
    6.2871    1.1365   -2.1900 H   0  0  0  0  0  0  0  0  0  0  0  0
    6.0676    2.6823   -1.3284 H   0  0  0  0  0  0  0  0  0  0  0  0
    8.5549    0.9091   -1.2746 H   0  0  0  0  0  0  0  0  0  0  0  0
    8.4025    2.4934   -2.0739 H   0  0  0  0  0  0  0  0  0  0  0  0
    7.9505    2.8793    1.9721 H   0  0  0  0  0  0  0  0  0  0  0  0
  1  6  2  0  0  0  0
  1  2  1  0  0  0  0
  1 21  1  0  0  0  0
  2  3  2  0  0  0  0
  2 22  1  0  0  0  0
  3 10  1  0  0  0  0
  3  4  1  0  0  0  0
  4  5  2  0  0  0  0
  4  8  1  0  0  0  0
  5  6  1  0  0  0  0
  5  7  1  0  0  0  0
  6 23  1  0  0  0  0
  7 24  1  0  0  0  0
  7 25  1  0  0  0  0
  8  9  1  0  0  0  0
  8 26  1  0  0  0  0
  8 27  1  0  0  0  0
  9 10  1  0  0  0  0
  9 12  1  0  0  0  0
 10 11  2  0  0  0  0
 12 13  1  6  0  0  0
 12 19  1  0  0  0  0
 12 14  1  0  0  0  0
 14 15  1  0  0  0  0
 14 28  1  0  0  0  0
 14 29  1  0  0  0  0
 15 16  1  0  0  0  0
 15 30  1  0  0  0  0
 15 31  1  0  0  0  0
 16 17  2  0  0  0  0
 16 18  1  0  0  0  0
 18 19  1  0  0  0  0
 18 32  1  0  0  0  0
 19 20  2  0  0  0  0
M  END
$$$$
