ZINC01530948
 OpenBabel08292219463D

 29 31  0  0  1  0  0  0  0  0999 V2000
    0.0856    1.4485   -0.3866 C   0  0  0  0  0  0  0  0  0  0  0  0
    1.0624    2.0320    0.3983 C   0  0  0  0  0  0  0  0  0  0  0  0
    2.1786    1.3071    0.7855 C   0  0  0  0  0  0  0  0  0  0  0  0
    2.3149   -0.0117    0.3828 C   0  0  0  0  0  0  0  0  0  0  0  0
    1.3187   -0.6068   -0.4172 C   0  0  0  0  0  0  0  0  0  0  0  0
    0.2085    0.1302   -0.7970 C   0  0  0  0  0  0  0  0  0  0  0  0
    1.7703   -1.9930   -0.6609 C   0  0  0  0  0  0  0  0  0  0  0  0
    1.1767   -2.8275   -1.3137 O   0  0  0  0  0  0  0  0  0  0  0  0
    2.9491   -2.1754   -0.0390 N   0  0  0  0  0  0  0  0  0  0  0  0
    3.3383   -1.0563    0.5981 C   0  0  0  0  0  0  0  0  0  0  0  0
    4.3597   -0.9260    1.2422 O   0  0  0  0  0  0  0  0  0  0  0  0
    3.7088   -3.4280   -0.0532 C   0  0  2  0  0  0  0  0  0  0  0  0
    3.3237   -4.0787   -0.8383 H   0  0  0  0  0  0  0  0  0  0  0  0
    3.5709   -4.1260    1.3040 C   0  0  0  0  0  0  0  0  0  0  0  0
    4.2179   -3.2419    2.3755 C   0  0  0  0  0  0  0  0  0  0  0  0
    5.6439   -2.9559    1.9854 C   0  0  0  0  0  0  0  0  0  0  0  0
    6.4692   -2.7600    2.8515 O   0  0  0  0  0  0  0  0  0  0  0  0
    6.0189   -2.9141    0.6981 N   0  0  0  0  0  0  0  0  0  0  0  0
    5.1624   -3.1320   -0.3128 C   0  0  0  0  0  0  0  0  0  0  0  0
    5.5656   -3.0903   -1.4553 O   0  0  0  0  0  0  0  0  0  0  0  0
   -0.7816    2.0223   -0.6784 H   0  0  0  0  0  0  0  0  0  0  0  0
    0.9553    3.0599    0.7118 H   0  0  0  0  0  0  0  0  0  0  0  0
    2.9390    1.7684    1.3983 H   0  0  0  0  0  0  0  0  0  0  0  0
   -0.5579   -0.3206   -1.4100 H   0  0  0  0  0  0  0  0  0  0  0  0
    2.5156   -4.2696    1.5362 H   0  0  0  0  0  0  0  0  0  0  0  0
    4.0761   -5.0914    1.2721 H   0  0  0  0  0  0  0  0  0  0  0  0
    3.6672   -2.3046    2.4555 H   0  0  0  0  0  0  0  0  0  0  0  0
    4.1994   -3.7593    3.3346 H   0  0  0  0  0  0  0  0  0  0  0  0
    6.9457   -2.7188    0.4889 H   0  0  0  0  0  0  0  0  0  0  0  0
  1  6  2  0  0  0  0
  1  2  1  0  0  0  0
  1 21  1  0  0  0  0
  2  3  2  0  0  0  0
  2 22  1  0  0  0  0
  3  4  1  0  0  0  0
  3 23  1  0  0  0  0
  4 10  1  0  0  0  0
  4  5  2  0  0  0  0
  5  6  1  0  0  0  0
  5  7  1  0  0  0  0
  6 24  1  0  0  0  0
  7  8  2  0  0  0  0
  7  9  1  0  0  0  0
  9 10  1  0  0  0  0
  9 12  1  0  0  0  0
 10 11  2  0  0  0  0
 12 13  1  6  0  0  0
 12 19  1  0  0  0  0
 12 14  1  0  0  0  0
 14 15  1  0  0  0  0
 14 25  1  0  0  0  0
 14 26  1  0  0  0  0
 15 16  1  0  0  0  0
 15 27  1  0  0  0  0
 15 28  1  0  0  0  0
 16 17  2  0  0  0  0
 16 18  1  0  0  0  0
 18 19  1  0  0  0  0
 18 29  1  0  0  0  0
 19 20  2  0  0  0  0
M  END
$$$$
