ZINC00000637
 OpenBabel08292219463D

 38 38  0  0  1  0  0  0  0  0999 V2000
   -0.0187    1.5258    0.0104 C   0  0  0  0  0  0  0  0  0  0  0  0
    0.0021   -0.0041    0.0020 C   0  0  0  0  0  0  0  0  0  0  0  0
    0.7421   -0.5109    1.2415 C   0  0  0  0  0  0  0  0  0  0  0  0
   -1.4333   -0.5336    0.0129 C   0  0  0  0  0  0  0  0  0  0  0  0
    0.6897   -0.4778   -1.2066 N   0  3  0  0  0  0  0  0  0  0  0  0
    2.0678    0.0307   -1.2170 C   0  0  0  0  0  0  0  0  0  0  0  0
    2.7840   -0.4628   -2.4758 C   0  0  2  0  0  0  0  0  0  0  0  0
    2.7213   -1.5498   -2.5270 H   0  0  0  0  0  0  0  0  0  0  0  0
    4.2310   -0.0447   -2.4270 C   0  0  0  0  0  0  0  0  0  0  0  0
    5.2217   -0.9997   -2.5612 C   0  0  0  0  0  0  0  0  0  0  0  0
    6.5496   -0.6077   -2.5153 C   0  0  0  0  0  0  0  0  0  0  0  0
    6.8347    0.7422   -2.3346 C   0  0  0  0  0  0  0  0  0  0  0  0
    5.7859    1.6410   -2.2077 C   0  0  0  0  0  0  0  0  0  0  0  0
    4.5352    1.2276   -2.2624 N   0  0  0  0  0  0  0  0  0  0  0  0
    6.0791    3.1061   -2.0114 C   0  0  0  0  0  0  0  0  0  0  0  0
    6.1647    3.7495   -3.2846 O   0  0  0  0  0  0  0  0  0  0  0  0
    8.1224    1.1737   -2.2827 O   0  0  0  0  0  0  0  0  0  0  0  0
    2.1628    0.1050   -3.6307 O   0  0  0  0  0  0  0  0  0  0  0  0
    1.0039    1.9031    0.0027 H   0  0  0  0  0  0  0  0  0  0  0  0
   -0.5459    1.8868   -0.8726 H   0  0  0  0  0  0  0  0  0  0  0  0
   -0.5289    1.8773    0.9072 H   0  0  0  0  0  0  0  0  0  0  0  0
    0.2319   -0.1594    2.1383 H   0  0  0  0  0  0  0  0  0  0  0  0
    0.7568   -1.6008    1.2356 H   0  0  0  0  0  0  0  0  0  0  0  0
    1.7647   -0.1336    1.2338 H   0  0  0  0  0  0  0  0  0  0  0  0
   -1.9605   -0.1726   -0.8702 H   0  0  0  0  0  0  0  0  0  0  0  0
   -1.4185   -1.6235    0.0069 H   0  0  0  0  0  0  0  0  0  0  0  0
   -1.9435   -0.1821    0.9097 H   0  0  0  0  0  0  0  0  0  0  0  0
    0.7033   -1.4867   -1.2121 H   0  0  0  0  0  0  0  0  0  0  0  0
    2.0530    1.1205   -1.2110 H   0  0  0  0  0  0  0  0  0  0  0  0
    2.5950   -0.3304   -0.3340 H   0  0  0  0  0  0  0  0  0  0  0  0
    4.9634   -2.0391   -2.6998 H   0  0  0  0  0  0  0  0  0  0  0  0
    7.3441   -1.3321   -2.6169 H   0  0  0  0  0  0  0  0  0  0  0  0
    5.2795    3.5616   -1.4272 H   0  0  0  0  0  0  0  0  0  0  0  0
    7.0255    3.2197   -1.4826 H   0  0  0  0  0  0  0  0  0  0  0  0
    6.3519    4.6969   -3.2347 H   0  0  0  0  0  0  0  0  0  0  0  0
    2.1814    1.0716   -3.6522 H   0  0  0  0  0  0  0  0  0  0  0  0
    8.4908    1.4168   -3.1431 H   0  0  0  0  0  0  0  0  0  0  0  0
    0.2017   -0.1436   -2.0240 H   0  0  0  0  0  0  0  0  0  0  0  0
  1  2  1  0  0  0  0
  1 19  1  0  0  0  0
  1 20  1  0  0  0  0
  1 21  1  0  0  0  0
  2  3  1  0  0  0  0
  2  4  1  0  0  0  0
  2  5  1  0  0  0  0
  3 22  1  0  0  0  0
  3 23  1  0  0  0  0
  3 24  1  0  0  0  0
  4 25  1  0  0  0  0
  4 26  1  0  0  0  0
  4 27  1  0  0  0  0
  5  6  1  0  0  0  0
  5 28  1  0  0  0  0
  5 38  1  0  0  0  0
  6  7  1  0  0  0  0
  6 29  1  0  0  0  0
  6 30  1  0  0  0  0
  7  8  1  6  0  0  0
  7 18  1  0  0  0  0
  7  9  1  0  0  0  0
  9 14  2  0  0  0  0
  9 10  1  0  0  0  0
 10 31  1  0  0  0  0
 10 11  2  0  0  0  0
 11 12  1  0  0  0  0
 11 32  1  0  0  0  0
 12 17  1  0  0  0  0
 12 13  2  0  0  0  0
 13 15  1  0  0  0  0
 13 14  1  0  0  0  0
 15 16  1  0  0  0  0
 15 33  1  0  0  0  0
 15 34  1  0  0  0  0
 16 35  1  0  0  0  0
 17 37  1  0  0  0  0
 18 36  1  0  0  0  0
M  CHG  1   5   1
M  END
$$$$
