ZINC71928291
 OpenBabel08292219463D

 92 95  0  0  1  0  0  0  0  0999 V2000
    0.4207    0.7198    0.3187 C   0  0  0  0  0  0  0  0  0  0  0  0
    1.7020    1.2160    0.9917 C   0  0  2  0  0  0  0  0  0  0  0  0
    2.5673    0.7845    0.4885 H   0  0  0  0  0  0  0  0  0  0  0  0
    1.7031    0.7922    2.4618 C   0  0  1  0  0  0  0  0  0  0  0  0
    0.8378    1.2237    2.9649 H   0  0  0  0  0  0  0  0  0  0  0  0
    1.6373   -0.7337    2.5526 C   0  0  2  0  0  0  0  0  0  0  0  0
    2.5026   -1.1653    2.0495 H   0  0  0  0  0  0  0  0  0  0  0  0
    0.3560   -1.2300    1.8797 C   0  0  1  0  0  0  0  0  0  0  0  0
   -0.5092   -0.7984    2.3829 H   0  0  0  0  0  0  0  0  0  0  0  0
    0.3550   -0.8061    0.4096 C   0  0  1  0  0  0  0  0  0  0  0  0
    1.2202   -1.2377   -0.0936 H   0  0  0  0  0  0  0  0  0  0  0  0
   -0.8752   -1.2826   -0.2365 N   0  3  0  0  0  0  0  0  0  0  0  0
    0.2947   -2.6551    1.9646 O   0  0  0  0  0  0  0  0  0  0  0  0
   -0.9096   -3.1510    2.5527 C   0  0  2  0  0  0  0  0  0  0  0  0
   -1.2699   -2.4410    3.2970 H   0  0  0  0  0  0  0  0  0  0  0  0
   -0.6325   -4.4985    3.2245 C   0  0  1  0  0  0  0  0  0  0  0  0
   -1.5408   -4.8580    3.7080 H   0  0  0  0  0  0  0  0  0  0  0  0
   -0.1842   -5.5071    2.1625 C   0  0  2  0  0  0  0  0  0  0  0  0
    0.7508   -5.1724    1.7134 H   0  0  0  0  0  0  0  0  0  0  0  0
   -1.2647   -5.6079    1.0815 C   0  0  1  0  0  0  0  0  0  0  0  0
   -2.1858   -5.9899    1.5217 H   0  0  0  0  0  0  0  0  0  0  0  0
   -1.5174   -4.2177    0.4924 C   0  0  2  0  0  0  0  0  0  0  0  0
   -0.6068   -3.8534    0.0169 H   0  0  0  0  0  0  0  0  0  0  0  0
   -1.9008   -3.3212    1.5374 O   0  0  0  0  0  0  0  0  0  0  0  0
   -2.6378   -4.2996   -0.5464 C   0  0  0  0  0  0  0  0  0  0  0  0
   -2.8382   -2.9780   -1.1557 N   0  3  0  0  0  0  0  0  0  0  0  0
   -0.8261   -6.4929    0.0489 O   0  0  0  0  0  0  0  0  0  0  0  0
    0.0081   -6.7865    2.7693 O   0  0  0  0  0  0  0  0  0  0  0  0
    0.4274   -4.3374    4.2289 N   0  0  0  0  0  0  0  0  0  0  0  0
    1.6383   -1.1296    3.9257 O   0  0  0  0  0  0  0  0  0  0  0  0
    2.9428   -1.3478    4.4668 C   0  0  1  0  0  0  0  0  0  0  0  0
    3.5685   -0.4686    4.3131 H   0  0  0  0  0  0  0  0  0  0  0  0
    2.8513   -1.6864    5.9712 C   0  0  1  0  0  0  0  0  0  0  0  0
    1.8719   -2.1005    6.2106 H   0  0  0  0  0  0  0  0  0  0  0  0
    3.9544   -2.7468    6.1852 C   0  0  1  0  0  0  0  0  0  0  0  0
    3.5204   -3.6852    6.5304 H   0  0  0  0  0  0  0  0  0  0  0  0
    4.5820   -2.9235    4.7847 C   0  0  2  0  0  0  0  0  0  0  0  0
    5.4607   -2.2872    4.6796 H   0  0  0  0  0  0  0  0  0  0  0  0
    3.5505   -2.5096    3.8610 O   0  0  0  0  0  0  0  0  0  0  0  0
    4.9553   -4.3885    4.5493 C   0  0  0  0  0  0  0  0  0  0  0  0
    5.6380   -4.5112    3.3000 O   0  0  0  0  0  0  0  0  0  0  0  0
    4.9289   -2.2745    7.1176 O   0  0  0  0  0  0  0  0  0  0  0  0
    4.6544   -2.6282    8.4746 C   0  0  2  0  0  0  0  0  0  0  0  0
    3.6253   -2.3639    8.7180 H   0  0  0  0  0  0  0  0  0  0  0  0
    5.6088   -1.8720    9.4025 C   0  0  1  0  0  0  0  0  0  0  0  0
    5.4388   -0.7998    9.3046 H   0  0  0  0  0  0  0  0  0  0  0  0
    5.3488   -2.3015   10.8496 C   0  0  2  0  0  0  0  0  0  0  0  0
    6.0624   -1.8089   11.5100 H   0  0  0  0  0  0  0  0  0  0  0  0
    5.5149   -3.8205   10.9575 C   0  0  1  0  0  0  0  0  0  0  0  0
    5.2776   -4.1417   11.9717 H   0  0  0  0  0  0  0  0  0  0  0  0
    4.5640   -4.5014    9.9696 C   0  0  1  0  0  0  0  0  0  0  0  0
    3.5338   -4.2618   10.2327 H   0  0  0  0  0  0  0  0  0  0  0  0
    4.8387   -4.0348    8.6471 O   0  0  0  0  0  0  0  0  0  0  0  0
    4.7664   -6.0168   10.0285 C   0  0  0  0  0  0  0  0  0  0  0  0
    3.8540   -6.6699    9.0805 N   0  3  0  0  0  0  0  0  0  0  0  0
    6.8635   -4.1767   10.6469 O   0  0  0  0  0  0  0  0  0  0  0  0
    4.0192   -1.9364   11.2250 O   0  0  0  0  0  0  0  0  0  0  0  0
    6.9974   -2.1841    9.0384 N   0  0  0  0  0  0  0  0  0  0  0  0
    3.1094   -0.5247    6.7625 O   0  0  0  0  0  0  0  0  0  0  0  0
    2.8998    1.2557    3.0903 O   0  0  0  0  0  0  0  0  0  0  0  0
    1.7651    2.6811    0.9044 N   0  3  0  0  0  0  0  0  0  0  0  0
   -0.4446    1.1513    0.8219 H   0  0  0  0  0  0  0  0  0  0  0  0
    0.4200    1.0217   -0.7286 H   0  0  0  0  0  0  0  0  0  0  0  0
   -0.8738   -1.0071   -1.2072 H   0  0  0  0  0  0  0  0  0  0  0  0
   -0.9209   -2.2885   -0.1725 H   0  0  0  0  0  0  0  0  0  0  0  0
   -2.3650   -5.0184   -1.3190 H   0  0  0  0  0  0  0  0  0  0  0  0
   -3.5600   -4.6198   -0.0615 H   0  0  0  0  0  0  0  0  0  0  0  0
   -2.9822   -2.2916   -0.4303 H   0  0  0  0  0  0  0  0  0  0  0  0
   -2.0233   -2.7300   -1.6966 H   0  0  0  0  0  0  0  0  0  0  0  0
   -0.6428   -7.3923    0.3532 H   0  0  0  0  0  0  0  0  0  0  0  0
    0.2932   -7.4752    2.1533 H   0  0  0  0  0  0  0  0  0  0  0  0
    0.1559   -3.6727    4.9377 H   0  0  0  0  0  0  0  0  0  0  0  0
    0.6732   -5.2251    4.6407 H   0  0  0  0  0  0  0  0  0  0  0  0
    5.6057   -4.7315    5.3540 H   0  0  0  0  0  0  0  0  0  0  0  0
    4.0502   -4.9955    4.5300 H   0  0  0  0  0  0  0  0  0  0  0  0
    5.9054   -5.4154    3.0851 H   0  0  0  0  0  0  0  0  0  0  0  0
    5.7966   -6.2563    9.7650 H   0  0  0  0  0  0  0  0  0  0  0  0
    4.5575   -6.3723   11.0375 H   0  0  0  0  0  0  0  0  0  0  0  0
    2.9003   -6.4483    9.3245 H   0  0  0  0  0  0  0  0  0  0  0  0
    4.0474   -6.3409    8.1465 H   0  0  0  0  0  0  0  0  0  0  0  0
    7.5208   -3.7760   11.2320 H   0  0  0  0  0  0  0  0  0  0  0  0
    3.7859   -2.1789   12.1316 H   0  0  0  0  0  0  0  0  0  0  0  0
    7.1910   -1.9137    8.0858 H   0  0  0  0  0  0  0  0  0  0  0  0
    7.6454   -1.7478    9.6770 H   0  0  0  0  0  0  0  0  0  0  0  0
    2.4792    0.1951    6.6216 H   0  0  0  0  0  0  0  0  0  0  0  0
    3.0079    2.2164    3.0703 H   0  0  0  0  0  0  0  0  0  0  0  0
    0.9641    3.0806    1.3702 H   0  0  0  0  0  0  0  0  0  0  0  0
    2.6101    3.0084    1.3482 H   0  0  0  0  0  0  0  0  0  0  0  0
   -3.6468   -3.0048   -1.7587 H   0  0  0  0  0  0  0  0  0  0  0  0
    3.9875   -7.6693    9.1194 H   0  0  0  0  0  0  0  0  0  0  0  0
   -1.6761   -0.8794    0.2263 H   0  0  0  0  0  0  0  0  0  0  0  0
    1.7644    2.9606   -0.0651 H   0  0  0  0  0  0  0  0  0  0  0  0
  1 10  1  0  0  0  0
  1  2  1  0  0  0  0
  1 62  1  0  0  0  0
  1 63  1  0  0  0  0
  2  3  1  6  0  0  0
  2  4  1  0  0  0  0
  2 61  1  0  0  0  0
  4  5  1  1  0  0  0
  4  6  1  0  0  0  0
  4 60  1  0  0  0  0
  6  7  1  6  0  0  0
  6  8  1  0  0  0  0
  6 30  1  0  0  0  0
  8  9  1  1  0  0  0
  8 10  1  0  0  0  0
  8 13  1  0  0  0  0
 10 11  1  6  0  0  0
 10 12  1  0  0  0  0
 12 64  1  0  0  0  0
 12 65  1  0  0  0  0
 12 91  1  0  0  0  0
 13 14  1  0  0  0  0
 14 15  1  1  0  0  0
 14 24  1  0  0  0  0
 14 16  1  0  0  0  0
 16 17  1  1  0  0  0
 16 18  1  0  0  0  0
 16 29  1  0  0  0  0
 18 19  1  6  0  0  0
 18 20  1  0  0  0  0
 18 28  1  0  0  0  0
 20 21  1  1  0  0  0
 20 22  1  0  0  0  0
 20 27  1  0  0  0  0
 22 23  1  6  0  0  0
 22 24  1  0  0  0  0
 22 25  1  0  0  0  0
 25 26  1  0  0  0  0
 25 66  1  0  0  0  0
 25 67  1  0  0  0  0
 26 68  1  0  0  0  0
 26 69  1  0  0  0  0
 26 89  1  0  0  0  0
 27 70  1  0  0  0  0
 28 71  1  0  0  0  0
 29 72  1  0  0  0  0
 29 73  1  0  0  0  0
 30 31  1  0  0  0  0
 31 32  1  6  0  0  0
 31 39  1  0  0  0  0
 31 33  1  0  0  0  0
 33 34  1  1  0  0  0
 33 35  1  0  0  0  0
 33 59  1  0  0  0  0
 35 36  1  1  0  0  0
 35 37  1  0  0  0  0
 35 42  1  0  0  0  0
 37 38  1  6  0  0  0
 37 39  1  0  0  0  0
 37 40  1  0  0  0  0
 40 41  1  0  0  0  0
 40 74  1  0  0  0  0
 40 75  1  0  0  0  0
 41 76  1  0  0  0  0
 42 43  1  0  0  0  0
 43 44  1  1  0  0  0
 43 53  1  0  0  0  0
 43 45  1  0  0  0  0
 45 46  1  6  0  0  0
 45 47  1  0  0  0  0
 45 58  1  0  0  0  0
 47 48  1  1  0  0  0
 47 49  1  0  0  0  0
 47 57  1  0  0  0  0
 49 50  1  1  0  0  0
 49 51  1  0  0  0  0
 49 56  1  0  0  0  0
 51 52  1  1  0  0  0
 51 53  1  0  0  0  0
 51 54  1  0  0  0  0
 54 55  1  0  0  0  0
 54 77  1  0  0  0  0
 54 78  1  0  0  0  0
 55 79  1  0  0  0  0
 55 80  1  0  0  0  0
 55 90  1  0  0  0  0
 56 81  1  0  0  0  0
 57 82  1  0  0  0  0
 58 83  1  0  0  0  0
 58 84  1  0  0  0  0
 59 85  1  0  0  0  0
 60 86  1  0  0  0  0
 61 87  1  0  0  0  0
 61 88  1  0  0  0  0
 61 92  1  0  0  0  0
M  CHG  4  12   1  26   1  55   1  61   1
M  END
$$$$
