ZINC02570895
 OpenBabel08292219463D

 40 42  0  0  0  0  0  0  0  0999 V2000
    0.0405    1.5033    0.0105 C   0  0  0  0  0  0  0  0  0  0  0  0
    0.0481   -0.0036    0.0022 C   0  0  0  0  0  0  0  0  0  0  0  0
   -0.4654   -0.6891   -1.0843 C   0  0  0  0  0  0  0  0  0  0  0  0
   -0.4609   -2.0687   -1.0981 C   0  0  0  0  0  0  0  0  0  0  0  0
    0.0630   -2.7726   -0.0133 C   0  0  0  0  0  0  0  0  0  0  0  0
    0.5793   -2.0754    1.0794 C   0  0  0  0  0  0  0  0  0  0  0  0
    0.5738   -0.6957    1.0787 C   0  0  0  0  0  0  0  0  0  0  0  0
    0.0704   -4.2518   -0.0214 C   0  0  0  0  0  0  0  0  0  0  0  0
    0.0778   -5.0559   -1.1264 C   0  0  0  0  0  0  0  0  0  0  0  0
    0.0841   -6.3814   -0.6911 C   0  0  0  0  0  0  0  0  0  0  0  0
    0.0806   -6.3920    0.6183 N   0  0  0  0  0  0  0  0  0  0  0  0
    0.0772   -5.0674    1.0740 N   0  0  0  0  0  0  0  0  0  0  0  0
    0.0780   -4.6538    2.4124 C   0  0  0  0  0  0  0  0  0  0  0  0
   -0.7877   -3.6523    2.8316 C   0  0  0  0  0  0  0  0  0  0  0  0
   -0.7845   -3.2467    4.1518 C   0  0  0  0  0  0  0  0  0  0  0  0
    0.0799   -3.8365    5.0557 C   0  0  0  0  0  0  0  0  0  0  0  0
    0.9432   -4.8341    4.6414 C   0  0  0  0  0  0  0  0  0  0  0  0
    0.9405   -5.2485    3.3238 C   0  0  0  0  0  0  0  0  0  0  0  0
    0.0817   -3.3155    6.7389 S   0  0  0  0  0  0  0  0  0  0  0  0
    1.3615   -3.6412    7.2635 O   0  0  0  0  0  0  0  0  0  0  0  0
   -0.4336   -1.9913    6.7547 O   0  0  0  0  0  0  0  0  0  0  0  0
   -1.0144   -4.2595    7.5449 N   0  0  0  0  0  0  0  0  0  0  0  0
    0.0927   -7.5984   -1.5799 C   0  0  0  0  0  0  0  0  0  0  0  0
    1.4144   -7.9678   -1.8518 F   0  0  0  0  0  0  0  0  0  0  0  0
   -0.5625   -8.6523   -0.9339 F   0  0  0  0  0  0  0  0  0  0  0  0
   -0.5656   -7.3049   -2.7789 F   0  0  0  0  0  0  0  0  0  0  0  0
    0.9639    1.8738   -0.4347 H   0  0  0  0  0  0  0  0  0  0  0  0
   -0.8113    1.8655   -0.5652 H   0  0  0  0  0  0  0  0  0  0  0  0
   -0.0366    1.8607    1.0374 H   0  0  0  0  0  0  0  0  0  0  0  0
   -0.8709   -0.1431   -1.9232 H   0  0  0  0  0  0  0  0  0  0  0  0
   -0.8624   -2.6027   -1.9467 H   0  0  0  0  0  0  0  0  0  0  0  0
    0.9862   -2.6145    1.9221 H   0  0  0  0  0  0  0  0  0  0  0  0
    0.9772   -0.1548    1.9220 H   0  0  0  0  0  0  0  0  0  0  0  0
    0.0784   -4.7241   -2.1542 H   0  0  0  0  0  0  0  0  0  0  0  0
   -1.4626   -3.1908    2.1259 H   0  0  0  0  0  0  0  0  0  0  0  0
   -1.4576   -2.4679    4.4785 H   0  0  0  0  0  0  0  0  0  0  0  0
    1.6174   -5.2926    5.3496 H   0  0  0  0  0  0  0  0  0  0  0  0
    1.6117   -6.0309    3.0018 H   0  0  0  0  0  0  0  0  0  0  0  0
   -1.5085   -4.9443    7.0675 H   0  0  0  0  0  0  0  0  0  0  0  0
   -1.1624   -4.1277    8.4945 H   0  0  0  0  0  0  0  0  0  0  0  0
  1  2  1  0  0  0  0
  1 27  1  0  0  0  0
  1 28  1  0  0  0  0
  1 29  1  0  0  0  0
  2  7  2  0  0  0  0
  2  3  1  0  0  0  0
  3  4  2  0  0  0  0
  3 30  1  0  0  0  0
  4  5  1  0  0  0  0
  4 31  1  0  0  0  0
  5  6  2  0  0  0  0
  5  8  1  0  0  0  0
  6  7  1  0  0  0  0
  6 32  1  0  0  0  0
  7 33  1  0  0  0  0
  8 12  1  0  0  0  0
  8  9  2  0  0  0  0
  9 10  1  0  0  0  0
  9 34  1  0  0  0  0
 10 11  2  0  0  0  0
 10 23  1  0  0  0  0
 11 12  1  0  0  0  0
 12 13  1  0  0  0  0
 13 18  2  0  0  0  0
 13 14  1  0  0  0  0
 14 15  2  0  0  0  0
 14 35  1  0  0  0  0
 15 16  1  0  0  0  0
 15 36  1  0  0  0  0
 16 17  2  0  0  0  0
 16 19  1  0  0  0  0
 17 18  1  0  0  0  0
 17 37  1  0  0  0  0
 18 38  1  0  0  0  0
 19 20  2  0  0  0  0
 19 21  2  0  0  0  0
 19 22  1  0  0  0  0
 22 39  1  0  0  0  0
 22 40  1  0  0  0  0
 23 24  1  0  0  0  0
 23 25  1  0  0  0  0
 23 26  1  0  0  0  0
M  END
$$$$
