ZINC13298712
 OpenBabel08292219463D

 33 33  0  0  1  0  0  0  0  0999 V2000
    1.7808   -2.2401    2.1485 C   0  0  0  0  0  0  0  0  0  0  0  0
    0.8700   -1.8238    0.9918 C   0  0  0  0  0  0  0  0  0  0  0  0
   -0.5018   -2.4798    1.1612 C   0  0  0  0  0  0  0  0  0  0  0  0
   -1.4126   -2.0635    0.0045 C   0  0  2  0  0  0  0  0  0  0  0  0
   -0.9298   -2.3040   -0.9427 H   0  0  0  0  0  0  0  0  0  0  0  0
   -1.6724   -0.5574    0.0765 C   0  0  0  0  0  0  0  0  0  0  0  0
   -2.7411   -2.8156    0.1053 C   0  0  1  0  0  0  0  0  0  0  0  0
   -3.4532   -2.3497    1.3604 C   0  0  0  0  0  0  0  0  0  0  0  0
   -2.8782   -2.4705    2.5689 O   0  5  0  0  0  0  0  0  0  0  0  0
   -4.6443   -1.8263    1.2294 N   0  0  0  0  0  0  0  0  0  0  0  0
   -5.2463   -1.6902    0.0438 C   0  0  0  0  0  0  0  0  0  0  0  0
   -4.7179   -2.0631   -1.1286 N   0  0  0  0  0  0  0  0  0  0  0  0
   -3.4913   -2.6263   -1.2004 C   0  0  0  0  0  0  0  0  0  0  0  0
   -3.0112   -2.9646   -2.2611 O   0  0  0  0  0  0  0  0  0  0  0  0
   -6.8071   -0.9871    0.0227 S   0  0  0  0  0  0  0  0  0  0  0  0
   -2.4304   -4.3058    0.2594 C   0  0  0  0  0  0  0  0  0  0  0  0
   -3.7391   -5.0916    0.3634 C   0  0  0  0  0  0  0  0  0  0  0  0
    2.7581   -1.7727    2.0278 H   0  0  0  0  0  0  0  0  0  0  0  0
    1.3390   -1.9199    3.0921 H   0  0  0  0  0  0  0  0  0  0  0  0
    1.8941   -3.3242    2.1497 H   0  0  0  0  0  0  0  0  0  0  0  0
    0.7567   -0.7397    0.9906 H   0  0  0  0  0  0  0  0  0  0  0  0
    1.3118   -2.1440    0.0481 H   0  0  0  0  0  0  0  0  0  0  0  0
   -0.3885   -3.5639    1.1624 H   0  0  0  0  0  0  0  0  0  0  0  0
   -0.9436   -2.1596    2.1048 H   0  0  0  0  0  0  0  0  0  0  0  0
   -2.2197   -0.3265    0.9904 H   0  0  0  0  0  0  0  0  0  0  0  0
   -0.7217   -0.0243    0.0777 H   0  0  0  0  0  0  0  0  0  0  0  0
   -2.2610   -0.2486   -0.7873 H   0  0  0  0  0  0  0  0  0  0  0  0
   -5.2262   -1.9265   -1.9434 H   0  0  0  0  0  0  0  0  0  0  0  0
   -1.8672   -4.6511   -0.6077 H   0  0  0  0  0  0  0  0  0  0  0  0
   -1.8398   -4.4624    1.1621 H   0  0  0  0  0  0  0  0  0  0  0  0
   -3.5177   -6.1532    0.4732 H   0  0  0  0  0  0  0  0  0  0  0  0
   -4.3022   -4.7463    1.2305 H   0  0  0  0  0  0  0  0  0  0  0  0
   -4.3296   -4.9350   -0.5393 H   0  0  0  0  0  0  0  0  0  0  0  0
  1  2  1  0  0  0  0
  1 18  1  0  0  0  0
  1 19  1  0  0  0  0
  1 20  1  0  0  0  0
  2  3  1  0  0  0  0
  2 21  1  0  0  0  0
  2 22  1  0  0  0  0
  3  4  1  0  0  0  0
  3 23  1  0  0  0  0
  3 24  1  0  0  0  0
  4  5  1  6  0  0  0
  4  6  1  0  0  0  0
  4  7  1  0  0  0  0
  6 25  1  0  0  0  0
  6 26  1  0  0  0  0
  6 27  1  0  0  0  0
  7  8  1  0  0  0  0
  7 16  1  1  0  0  0
  7 13  1  0  0  0  0
  8  9  1  0  0  0  0
  8 10  2  0  0  0  0
 10 11  1  0  0  0  0
 11 12  1  0  0  0  0
 11 15  2  0  0  0  0
 12 13  1  0  0  0  0
 12 28  1  0  0  0  0
 13 14  2  0  0  0  0
 16 17  1  0  0  0  0
 16 29  1  0  0  0  0
 16 30  1  0  0  0  0
 17 31  1  0  0  0  0
 17 32  1  0  0  0  0
 17 33  1  0  0  0  0
M  CHG  1   9  -1
M  END
$$$$
