ZINC14879975
 OpenBabel08292219463D

 49 50  0  0  1  0  0  0  0  0999 V2000
   -0.0173    1.4248    0.0099 C   0  0  0  0  0  0  0  0  0  0  0  0
    1.4195    1.9533   -0.0010 C   0  0  2  0  0  0  0  0  0  0  0  0
    1.9175    1.6357   -0.9171 H   0  0  0  0  0  0  0  0  0  0  0  0
    2.1706    1.3929    1.2107 C   0  0  1  0  0  0  0  0  0  0  0  0
    1.7022    1.7508    2.1275 H   0  0  0  0  0  0  0  0  0  0  0  0
    2.1137   -0.1373    1.1698 C   0  0  2  0  0  0  0  0  0  0  0  0
    2.6257   -0.4971    0.2774 H   0  0  0  0  0  0  0  0  0  0  0  0
    0.6501   -0.5850    1.1355 C   0  0  1  0  0  0  0  0  0  0  0  0
    0.1489   -0.2596    2.0471 H   0  0  0  0  0  0  0  0  0  0  0  0
    0.0021   -0.0041    0.0020 O   0  0  0  0  0  0  0  0  0  0  0  0
    0.5896   -2.0096    1.0409 O   0  0  0  0  0  0  0  0  0  0  0  0
   -0.7346   -2.5414    1.1155 C   0  0  2  0  0  0  0  0  0  0  0  0
   -1.4412   -1.8178    0.7090 H   0  0  0  0  0  0  0  0  0  0  0  0
   -1.0865   -2.8350    2.5762 C   0  0  0  0  0  0  0  0  0  0  0  0
   -2.3885   -3.4203    2.6427 O   0  0  0  0  0  0  0  0  0  0  0  0
   -2.5062   -4.6624    1.9460 C   0  0  2  0  0  0  0  0  0  0  0  0
   -1.7934   -5.3780    2.3558 H   0  0  0  0  0  0  0  0  0  0  0  0
   -2.2113   -4.4422    0.4599 C   0  0  1  0  0  0  0  0  0  0  0  0
   -2.9483   -3.7578    0.0399 H   0  0  0  0  0  0  0  0  0  0  0  0
   -0.8108   -3.8406    0.3076 C   0  0  1  0  0  0  0  0  0  0  0  0
   -0.0691   -4.5464    0.6815 H   0  0  0  0  0  0  0  0  0  0  0  0
   -0.5560   -3.5621   -1.0706 O   0  0  0  0  0  0  0  0  0  0  0  0
    0.2014   -4.6655   -1.7954 S   0  0  0  0  0  0  0  0  0  0  0  0
    0.6884   -4.0951   -3.0418 O   0  0  0  0  0  0  0  0  0  0  0  0
    1.2910   -5.0736   -0.9224 O   0  0  0  0  0  0  0  0  0  0  0  0
   -0.7445   -5.7464   -2.0255 O   0  0  0  0  0  1  0  0  0  0  0  0
   -2.2730   -5.6923   -0.2295 O   0  0  0  0  0  0  0  0  0  0  0  0
   -3.6231   -5.9797   -0.8708 S   0  0  0  0  0  0  0  0  0  0  0  0
   -3.6397   -7.3956   -1.2038 O   0  0  0  0  0  0  0  0  0  0  0  0
   -4.6390   -5.6411    0.1138 O   0  0  0  0  0  0  0  0  0  0  0  0
   -3.7146   -5.1416   -2.0562 O   0  0  0  0  0  1  0  0  0  0  0  0
   -3.8330   -5.1706    2.0986 O   0  0  0  0  0  0  0  0  0  0  0  0
    2.7501   -0.6701    2.3330 O   0  0  0  0  0  0  0  0  0  0  0  0
    3.4976   -1.9730    2.0878 S   0  0  0  0  0  0  0  0  0  0  0  0
    3.7681   -2.5568    3.3924 O   0  0  0  0  0  0  0  0  0  0  0  0
    2.6249   -2.8161    1.2856 O   0  0  0  0  0  0  0  0  0  0  0  0
    4.7222   -1.6309    1.3812 O   0  0  0  0  0  1  0  0  0  0  0  0
    3.5325    1.8236    1.1700 O   0  0  0  0  0  0  0  0  0  0  0  0
    3.8094    3.0788    1.9850 S   0  0  0  0  0  0  0  0  0  0  0  0
    5.1072    3.5804    1.5604 O   0  0  0  0  0  0  0  0  0  0  0  0
    2.7400    4.0193    1.6888 O   0  0  0  0  0  0  0  0  0  0  0  0
    3.8118    2.6817    3.3844 O   0  0  0  0  0  1  0  0  0  0  0  0
    1.4037    3.3807    0.0637 O   0  0  0  0  0  0  0  0  0  0  0  0
   -0.5272    1.7765    0.9068 H   0  0  0  0  0  0  0  0  0  0  0  0
   -0.5442    1.7861   -0.8733 H   0  0  0  0  0  0  0  0  0  0  0  0
   -0.3552   -3.5268    2.9943 H   0  0  0  0  0  0  0  0  0  0  0  0
   -1.0760   -1.9062    3.1464 H   0  0  0  0  0  0  0  0  0  0  0  0
   -4.0887   -5.3333    3.0168 H   0  0  0  0  0  0  0  0  0  0  0  0
    0.9394    3.8027   -0.6721 H   0  0  0  0  0  0  0  0  0  0  0  0
  1 10  1  0  0  0  0
  1  2  1  0  0  0  0
  1 44  1  0  0  0  0
  1 45  1  0  0  0  0
  2  3  1  6  0  0  0
  2  4  1  0  0  0  0
  2 43  1  0  0  0  0
  4  5  1  1  0  0  0
  4  6  1  0  0  0  0
  4 38  1  0  0  0  0
  6  7  1  6  0  0  0
  6  8  1  0  0  0  0
  6 33  1  0  0  0  0
  8  9  1  1  0  0  0
  8 10  1  0  0  0  0
  8 11  1  0  0  0  0
 11 12  1  0  0  0  0
 12 13  1  6  0  0  0
 12 20  1  0  0  0  0
 12 14  1  0  0  0  0
 14 15  1  0  0  0  0
 14 46  1  0  0  0  0
 14 47  1  0  0  0  0
 15 16  1  0  0  0  0
 16 17  1  1  0  0  0
 16 18  1  0  0  0  0
 16 32  1  0  0  0  0
 18 19  1  6  0  0  0
 18 20  1  0  0  0  0
 18 27  1  0  0  0  0
 20 21  1  1  0  0  0
 20 22  1  0  0  0  0
 22 23  1  0  0  0  0
 23 24  2  0  0  0  0
 23 25  2  0  0  0  0
 23 26  1  0  0  0  0
 27 28  1  0  0  0  0
 28 29  2  0  0  0  0
 28 30  2  0  0  0  0
 28 31  1  0  0  0  0
 32 48  1  0  0  0  0
 33 34  1  0  0  0  0
 34 35  2  0  0  0  0
 34 36  2  0  0  0  0
 34 37  1  0  0  0  0
 38 39  1  0  0  0  0
 39 40  2  0  0  0  0
 39 41  2  0  0  0  0
 39 42  1  0  0  0  0
 43 49  1  0  0  0  0
M  END
$$$$
