ZINC03812918
 OpenBabel08292219463D

 62 64  0  0  1  0  0  0  0  0999 V2000
    0.0184    1.1674    0.0635 C   0  0  0  0  0  0  0  0  0  0  0  0
    0.0287   -0.3496   -0.1352 C   0  0  0  0  0  0  0  0  0  0  0  0
    0.8187   -1.0070    0.9982 C   0  0  0  0  0  0  0  0  0  0  0  0
   -1.4083   -0.8748   -0.1267 C   0  0  0  0  0  0  0  0  0  0  0  0
   -2.1137   -0.3508   -1.2536 O   0  0  0  0  0  0  0  0  0  0  0  0
   -3.4732   -0.7822   -1.3402 C   0  0  0  0  0  0  0  0  0  0  0  0
   -4.1268   -0.1633   -2.5774 C   0  0  1  0  0  0  0  0  0  0  0  0
   -3.5364   -0.4070   -3.4606 H   0  0  0  0  0  0  0  0  0  0  0  0
   -5.5419   -0.7218   -2.7399 C   0  0  0  0  0  0  0  0  0  0  0  0
   -5.4715   -2.1608   -3.0055 N   0  0  0  0  0  0  0  0  0  0  0  0
   -5.6171   -3.1168   -1.9050 C   0  0  0  0  0  0  0  0  0  0  0  0
   -7.0717   -3.4743   -1.7394 C   0  0  0  0  0  0  0  0  0  0  0  0
   -7.8753   -2.7280   -0.8979 C   0  0  0  0  0  0  0  0  0  0  0  0
   -9.2096   -3.0559   -0.7459 C   0  0  0  0  0  0  0  0  0  0  0  0
   -9.7403   -4.1299   -1.4358 C   0  0  0  0  0  0  0  0  0  0  0  0
   -8.9368   -4.8756   -2.2780 C   0  0  0  0  0  0  0  0  0  0  0  0
   -7.6036   -4.5451   -2.4332 C   0  0  0  0  0  0  0  0  0  0  0  0
   -5.2654   -2.6213   -4.3080 C   0  0  0  0  0  0  0  0  0  0  0  0
   -5.2314   -1.7228   -5.3668 C   0  0  0  0  0  0  0  0  0  0  0  0
   -5.0270   -2.1814   -6.6533 C   0  0  0  0  0  0  0  0  0  0  0  0
   -4.8568   -3.5335   -6.8881 C   0  0  0  0  0  0  0  0  0  0  0  0
   -4.8901   -4.4307   -5.8364 C   0  0  0  0  0  0  0  0  0  0  0  0
   -5.0883   -3.9782   -4.5467 C   0  0  0  0  0  0  0  0  0  0  0  0
   -4.1915    1.2957   -2.4189 N   0  3  0  0  0  0  0  0  0  0  0  0
   -2.8266    1.8785   -2.4802 C   0  0  0  0  0  0  0  0  0  0  0  0
   -3.0891    3.3561   -2.8654 C   0  0  0  0  0  0  0  0  0  0  0  0
   -4.2702    3.2502   -3.8572 C   0  0  0  0  0  0  0  0  0  0  0  0
   -4.9382    1.8984   -3.5443 C   0  0  0  0  0  0  0  0  0  0  0  0
    1.0421    1.5416    0.0574 H   0  0  0  0  0  0  0  0  0  0  0  0
   -0.5444    1.6358   -0.7440 H   0  0  0  0  0  0  0  0  0  0  0  0
   -0.4499    1.4056    1.0185 H   0  0  0  0  0  0  0  0  0  0  0  0
    0.4969   -0.5878   -1.0902 H   0  0  0  0  0  0  0  0  0  0  0  0
    0.3504   -0.7688    1.9533 H   0  0  0  0  0  0  0  0  0  0  0  0
    0.8260   -2.0878    0.8567 H   0  0  0  0  0  0  0  0  0  0  0  0
    1.8424   -0.6328    0.9922 H   0  0  0  0  0  0  0  0  0  0  0  0
   -1.3976   -1.9635   -0.1789 H   0  0  0  0  0  0  0  0  0  0  0  0
   -1.9048   -0.5600    0.7912 H   0  0  0  0  0  0  0  0  0  0  0  0
   -3.5053   -1.8690   -1.4177 H   0  0  0  0  0  0  0  0  0  0  0  0
   -4.0126   -0.4655   -0.4475 H   0  0  0  0  0  0  0  0  0  0  0  0
   -6.1083   -0.5485   -1.8249 H   0  0  0  0  0  0  0  0  0  0  0  0
   -6.0362   -0.2223   -3.5732 H   0  0  0  0  0  0  0  0  0  0  0  0
   -5.0447   -4.0172   -2.1278 H   0  0  0  0  0  0  0  0  0  0  0  0
   -5.2457   -2.6690   -0.9832 H   0  0  0  0  0  0  0  0  0  0  0  0
   -7.4607   -1.8890   -0.3589 H   0  0  0  0  0  0  0  0  0  0  0  0
   -9.8373   -2.4733   -0.0880 H   0  0  0  0  0  0  0  0  0  0  0  0
  -10.7826   -4.3865   -1.3165 H   0  0  0  0  0  0  0  0  0  0  0  0
   -9.3514   -5.7149   -2.8167 H   0  0  0  0  0  0  0  0  0  0  0  0
   -6.9768   -5.1254   -3.0940 H   0  0  0  0  0  0  0  0  0  0  0  0
   -5.3650   -0.6667   -5.1842 H   0  0  0  0  0  0  0  0  0  0  0  0
   -5.0005   -1.4834   -7.4770 H   0  0  0  0  0  0  0  0  0  0  0  0
   -4.6978   -3.8896   -7.8953 H   0  0  0  0  0  0  0  0  0  0  0  0
   -4.7568   -5.4861   -6.0232 H   0  0  0  0  0  0  0  0  0  0  0  0
   -5.1097   -4.6790   -3.7252 H   0  0  0  0  0  0  0  0  0  0  0  0
   -2.3374    1.8155   -1.5082 H   0  0  0  0  0  0  0  0  0  0  0  0
   -2.2301    1.3816   -3.2452 H   0  0  0  0  0  0  0  0  0  0  0  0
   -3.3725    3.9388   -1.9889 H   0  0  0  0  0  0  0  0  0  0  0  0
   -2.2148    3.7891   -3.3516 H   0  0  0  0  0  0  0  0  0  0  0  0
   -4.9743    4.0665   -3.6956 H   0  0  0  0  0  0  0  0  0  0  0  0
   -3.9044    3.2628   -4.8839 H   0  0  0  0  0  0  0  0  0  0  0  0
   -4.8847    1.2471   -4.4166 H   0  0  0  0  0  0  0  0  0  0  0  0
   -5.9782    2.0555   -3.2582 H   0  0  0  0  0  0  0  0  0  0  0  0
   -4.6326    1.5317   -1.5426 H   0  0  0  0  0  0  0  0  0  0  0  0
  1  2  1  0  0  0  0
  1 29  1  0  0  0  0
  1 30  1  0  0  0  0
  1 31  1  0  0  0  0
  2  3  1  0  0  0  0
  2  4  1  0  0  0  0
  2 32  1  0  0  0  0
  3 33  1  0  0  0  0
  3 34  1  0  0  0  0
  3 35  1  0  0  0  0
  4  5  1  0  0  0  0
  4 36  1  0  0  0  0
  4 37  1  0  0  0  0
  5  6  1  0  0  0  0
  6  7  1  0  0  0  0
  6 38  1  0  0  0  0
  6 39  1  0  0  0  0
  7  8  1  6  0  0  0
  7  9  1  0  0  0  0
  7 24  1  0  0  0  0
  9 10  1  0  0  0  0
  9 40  1  0  0  0  0
  9 41  1  0  0  0  0
 10 11  1  0  0  0  0
 10 18  1  0  0  0  0
 11 12  1  0  0  0  0
 11 42  1  0  0  0  0
 11 43  1  0  0  0  0
 12 17  2  0  0  0  0
 12 13  1  0  0  0  0
 13 14  2  0  0  0  0
 13 44  1  0  0  0  0
 14 15  1  0  0  0  0
 14 45  1  0  0  0  0
 15 16  2  0  0  0  0
 15 46  1  0  0  0  0
 16 17  1  0  0  0  0
 16 47  1  0  0  0  0
 17 48  1  0  0  0  0
 18 23  2  0  0  0  0
 18 19  1  0  0  0  0
 19 20  2  0  0  0  0
 19 49  1  0  0  0  0
 20 21  1  0  0  0  0
 20 50  1  0  0  0  0
 21 22  2  0  0  0  0
 21 51  1  0  0  0  0
 22 23  1  0  0  0  0
 22 52  1  0  0  0  0
 23 53  1  0  0  0  0
 24 28  1  0  0  0  0
 24 25  1  0  0  0  0
 24 62  1  0  0  0  0
 25 26  1  0  0  0  0
 25 54  1  0  0  0  0
 25 55  1  0  0  0  0
 26 27  1  0  0  0  0
 26 56  1  0  0  0  0
 26 57  1  0  0  0  0
 27 28  1  0  0  0  0
 27 58  1  0  0  0  0
 27 59  1  0  0  0  0
 28 60  1  0  0  0  0
 28 61  1  0  0  0  0
M  CHG  1  24   1
M  END
$$$$
