ZINC01481831
 OpenBabel08292219463D

 43 46  0  0  0  0  0  0  0  0999 V2000
   -0.0184    1.5028    0.0103 C   0  0  0  0  0  0  0  0  0  0  0  0
    0.0021   -0.0041    0.0020 C   0  0  0  0  0  0  0  0  0  0  0  0
    0.0057   -0.6874   -1.2002 C   0  0  0  0  0  0  0  0  0  0  0  0
    0.0240   -2.0723   -1.2102 C   0  0  0  0  0  0  0  0  0  0  0  0
    0.0391   -2.7738   -0.0068 C   0  0  0  0  0  0  0  0  0  0  0  0
    0.0352   -2.0828    1.1936 C   0  0  0  0  0  0  0  0  0  0  0  0
    0.0229   -0.7000    1.1959 C   0  0  0  0  0  0  0  0  0  0  0  0
    0.0251    0.0497    2.5032 C   0  0  0  0  0  0  0  0  0  0  0  0
   -1.3914    0.3878    2.8908 C   0  0  0  0  0  0  0  0  0  0  0  0
   -2.3134    0.0524    2.1749 O   0  0  0  0  0  0  0  0  0  0  0  0
   -1.6468    1.0945    4.0866 C   0  0  0  0  0  0  0  0  0  0  0  0
   -2.8657    1.4965    4.6252 C   0  0  0  0  0  0  0  0  0  0  0  0
   -2.7948    2.1751    5.8150 C   0  0  0  0  0  0  0  0  0  0  0  0
   -1.5785    2.4042    6.3738 C   0  0  0  0  0  0  0  0  0  0  0  0
   -0.4927    1.6978    5.3041 S   0  0  0  0  0  0  0  0  0  0  0  0
   -4.4006    1.1560    3.8296 S   0  0  0  0  0  0  0  0  0  0  0  0
   -4.3857   -0.2243    3.4921 O   0  0  0  0  0  0  0  0  0  0  0  0
   -5.4152    1.7308    4.6416 O   0  0  0  0  0  0  0  0  0  0  0  0
   -4.4074    1.9926    2.4005 N   0  0  0  0  0  2  0  0  0  0  0  0
   -5.5014    1.9124    1.5572 C   0  0  0  0  0  0  0  0  0  0  0  0
   -5.6365    2.5391    0.3584 C   0  0  0  0  0  0  0  0  0  0  0  0
   -6.8869    2.1949   -0.1725 C   0  0  0  0  0  0  0  0  0  0  0  0
   -7.4818    1.3944    0.6697 N   0  0  0  0  0  0  0  0  0  0  0  0
   -6.6180    1.1963    1.7741 O   0  0  0  0  0  0  0  0  0  0  0  0
   -7.4480    2.6675   -1.4888 C   0  0  0  0  0  0  0  0  0  0  0  0
   -4.4656    3.5837   -0.3843 Cl  0  0  0  0  0  0  0  0  0  0  0  0
    0.0554   -4.1108   -0.2815 O   0  0  0  0  0  0  0  0  0  0  0  0
   -0.3620   -4.2262   -1.6547 C   0  0  0  0  0  0  0  0  0  0  0  0
    0.0308   -2.9700   -2.2385 O   0  0  0  0  0  0  0  0  0  0  0  0
    1.0042    1.8801    0.0026 H   0  0  0  0  0  0  0  0  0  0  0  0
   -0.5455    1.8639   -0.8728 H   0  0  0  0  0  0  0  0  0  0  0  0
   -0.5286    1.8543    0.9071 H   0  0  0  0  0  0  0  0  0  0  0  0
   -0.0061   -0.1410   -2.1316 H   0  0  0  0  0  0  0  0  0  0  0  0
    0.0470   -2.6240    2.1280 H   0  0  0  0  0  0  0  0  0  0  0  0
    0.4752   -0.5715    3.2775 H   0  0  0  0  0  0  0  0  0  0  0  0
    0.6011    0.9686    2.3941 H   0  0  0  0  0  0  0  0  0  0  0  0
   -3.6944    2.5230    6.3009 H   0  0  0  0  0  0  0  0  0  0  0  0
   -1.3595    2.9190    7.2976 H   0  0  0  0  0  0  0  0  0  0  0  0
   -7.1605    1.9718   -2.2771 H   0  0  0  0  0  0  0  0  0  0  0  0
   -8.5351    2.7146   -1.4244 H   0  0  0  0  0  0  0  0  0  0  0  0
   -7.0544    3.6580   -1.7170 H   0  0  0  0  0  0  0  0  0  0  0  0
    0.1530   -5.0533   -2.1433 H   0  0  0  0  0  0  0  0  0  0  0  0
   -1.4425   -4.3562   -1.7169 H   0  0  0  0  0  0  0  0  0  0  0  0
  1  2  1  0  0  0  0
  1 30  1  0  0  0  0
  1 31  1  0  0  0  0
  1 32  1  0  0  0  0
  2  7  2  0  0  0  0
  2  3  1  0  0  0  0
  3  4  2  0  0  0  0
  3 33  1  0  0  0  0
  4 29  1  0  0  0  0
  4  5  1  0  0  0  0
  5  6  2  0  0  0  0
  5 27  1  0  0  0  0
  6  7  1  0  0  0  0
  6 34  1  0  0  0  0
  7  8  1  0  0  0  0
  8  9  1  0  0  0  0
  8 35  1  0  0  0  0
  8 36  1  0  0  0  0
  9 10  2  0  0  0  0
  9 11  1  0  0  0  0
 11 15  1  0  0  0  0
 11 12  2  0  0  0  0
 12 13  1  0  0  0  0
 12 16  1  0  0  0  0
 13 14  2  0  0  0  0
 13 37  1  0  0  0  0
 14 15  1  0  0  0  0
 14 38  1  0  0  0  0
 16 17  2  0  0  0  0
 16 18  2  0  0  0  0
 16 19  1  0  0  0  0
 19 20  1  0  0  0  0
 20 24  1  0  0  0  0
 20 21  2  0  0  0  0
 21 22  1  0  0  0  0
 21 26  1  0  0  0  0
 22 23  2  0  0  0  0
 22 25  1  0  0  0  0
 23 24  1  0  0  0  0
 25 39  1  0  0  0  0
 25 40  1  0  0  0  0
 25 41  1  0  0  0  0
 27 28  1  0  0  0  0
 28 29  1  0  0  0  0
 28 42  1  0  0  0  0
 28 43  1  0  0  0  0
M  END
$$$$
