ZINC38321402
 OpenBabel08292219463D

 76 82  0  0  1  0  0  0  0  0999 V2000
    0.4310    1.5076   -1.3639 C   0  0  0  0  0  0  0  0  0  0  0  0
   -0.0188    0.3493   -0.4713 C   0  0  2  0  0  0  0  0  0  0  0  0
    0.8533    0.3050    0.7849 C   0  0  1  0  0  0  0  0  0  0  0  0
    0.9533   -0.7284    1.1169 H   0  0  0  0  0  0  0  0  0  0  0  0
    2.2417    0.8672    0.4567 C   0  0  0  0  0  0  0  0  0  0  0  0
    2.5263    2.0512    1.3689 C   0  0  1  0  0  0  0  0  0  0  0  0
    1.4722    3.1390    1.1281 C   0  0  0  0  0  0  0  0  0  0  0  0
    0.0822    2.5870    1.4447 C   0  0  0  0  0  0  0  0  0  0  0  0
    0.1872    1.1290    1.8917 C   0  0  2  0  0  0  0  0  0  0  0  0
    1.0327    1.0439    3.1653 C   0  0  1  0  0  0  0  0  0  0  0  0
    1.0947    0.0154    3.5210 H   0  0  0  0  0  0  0  0  0  0  0  0
    2.4211    1.5903    2.8308 C   0  0  1  0  0  0  0  0  0  0  0  0
    3.5334    0.6459    3.2104 C   0  0  0  0  0  0  0  0  0  0  0  0
    4.8977    1.2224    2.8250 C   0  0  0  0  0  0  0  0  0  0  0  0
    4.9039    1.5632    1.3942 N   0  3  1  0  0  0  0  0  0  0  0  0
    3.9169    2.6439    1.1753 C   0  0  2  0  0  0  0  0  0  0  0  0
    4.0109    3.0155    0.1550 H   0  0  0  0  0  0  0  0  0  0  0  0
    4.2611    3.7755    2.1430 C   0  0  0  0  0  0  0  0  0  0  0  0
    3.3087    3.9382    3.2785 C   0  0  0  0  0  0  0  0  0  0  0  0
    2.4464    2.8973    3.5666 C   0  0  0  0  0  0  0  0  0  0  0  0
    1.3619    2.9528    4.4179 C   0  0  0  0  0  0  0  0  0  0  0  0
    1.2530    4.0777    5.2475 C   0  0  0  0  0  0  0  0  0  0  0  0
    2.1993    5.0849    5.0689 C   0  0  0  0  0  0  0  0  0  0  0  0
    3.1915    5.0414    4.1010 C   0  0  0  0  0  0  0  0  0  0  0  0
    0.2703    4.1813    6.1819 O   0  0  0  0  0  0  0  0  0  0  0  0
    0.5194    1.9113    4.1927 O   0  0  0  0  0  0  0  0  0  0  0  0
    6.2414    2.0255    1.0000 C   0  0  0  0  0  0  0  0  0  0  0  0
    7.2410    0.8761    1.1433 C   0  0  0  0  0  0  0  0  0  0  0  0
    8.3675    1.0428    2.1650 C   0  0  0  0  0  0  0  0  0  0  0  0
    8.6743    1.1230    0.6683 C   0  0  0  0  0  0  0  0  0  0  0  0
   -1.1209    0.6142    2.1484 O   0  0  0  0  0  0  0  0  0  0  0  0
   -1.8316    1.3163    3.1702 C   0  0  0  0  0  0  0  0  0  0  0  0
    0.1216   -0.9683   -1.2363 C   0  0  0  0  0  0  0  0  0  0  0  0
    1.5655   -1.1278   -1.7166 C   0  0  0  0  0  0  0  0  0  0  0  0
   -0.2410   -2.1344   -0.3145 C   0  0  0  0  0  0  0  0  0  0  0  0
   -0.8193   -0.9603   -2.4428 C   0  0  0  0  0  0  0  0  0  0  0  0
   -1.3846    0.5392   -0.0965 O   0  0  0  0  0  0  0  0  0  0  0  0
    1.4583    1.3396   -1.6870 H   0  0  0  0  0  0  0  0  0  0  0  0
   -0.2192    1.5675   -2.2367 H   0  0  0  0  0  0  0  0  0  0  0  0
    0.3742    2.4411   -0.8040 H   0  0  0  0  0  0  0  0  0  0  0  0
    2.9945    0.0951    0.6157 H   0  0  0  0  0  0  0  0  0  0  0  0
    2.2663    1.1937   -0.5830 H   0  0  0  0  0  0  0  0  0  0  0  0
    1.6787    3.9934    1.7726 H   0  0  0  0  0  0  0  0  0  0  0  0
    1.5083    3.4547    0.0854 H   0  0  0  0  0  0  0  0  0  0  0  0
   -0.3688    3.1782    2.2417 H   0  0  0  0  0  0  0  0  0  0  0  0
   -0.5427    2.6480    0.5537 H   0  0  0  0  0  0  0  0  0  0  0  0
    3.5075    0.4765    4.2868 H   0  0  0  0  0  0  0  0  0  0  0  0
    3.3878   -0.3039    2.6958 H   0  0  0  0  0  0  0  0  0  0  0  0
    5.0916    2.1197    3.4126 H   0  0  0  0  0  0  0  0  0  0  0  0
    5.6736    0.4834    3.0253 H   0  0  0  0  0  0  0  0  0  0  0  0
    5.2547    3.5897    2.5508 H   0  0  0  0  0  0  0  0  0  0  0  0
    4.2922    4.7101    1.5830 H   0  0  0  0  0  0  0  0  0  0  0  0
    2.1577    5.9460    5.7194 H   0  0  0  0  0  0  0  0  0  0  0  0
    3.8735    5.8714    3.9904 H   0  0  0  0  0  0  0  0  0  0  0  0
    0.5111    3.8231    7.0472 H   0  0  0  0  0  0  0  0  0  0  0  0
    6.2190    2.3604   -0.0370 H   0  0  0  0  0  0  0  0  0  0  0  0
    6.5440    2.8524    1.6425 H   0  0  0  0  0  0  0  0  0  0  0  0
    6.8303   -0.1241    1.0052 H   0  0  0  0  0  0  0  0  0  0  0  0
    8.3965    1.9714    2.7352 H   0  0  0  0  0  0  0  0  0  0  0  0
    8.6981    0.1522    2.6995 H   0  0  0  0  0  0  0  0  0  0  0  0
    9.2067    0.2852    0.2180 H   0  0  0  0  0  0  0  0  0  0  0  0
    8.9051    2.1044    0.2537 H   0  0  0  0  0  0  0  0  0  0  0  0
   -2.8145    0.8648    3.3049 H   0  0  0  0  0  0  0  0  0  0  0  0
   -1.2743    1.2592    4.1052 H   0  0  0  0  0  0  0  0  0  0  0  0
   -1.9481    2.3605    2.8799 H   0  0  0  0  0  0  0  0  0  0  0  0
    2.1889   -1.4642   -0.8881 H   0  0  0  0  0  0  0  0  0  0  0  0
    1.6018   -1.8631   -2.5205 H   0  0  0  0  0  0  0  0  0  0  0  0
    1.9343   -0.1699   -2.0833 H   0  0  0  0  0  0  0  0  0  0  0  0
   -1.2697   -2.0207    0.0277 H   0  0  0  0  0  0  0  0  0  0  0  0
   -0.1410   -3.0730   -0.8595 H   0  0  0  0  0  0  0  0  0  0  0  0
    0.4292   -2.1401    0.5450 H   0  0  0  0  0  0  0  0  0  0  0  0
   -0.5609   -0.1296   -3.0995 H   0  0  0  0  0  0  0  0  0  0  0  0
   -0.7193   -1.8990   -2.9878 H   0  0  0  0  0  0  0  0  0  0  0  0
   -1.8479   -0.8467   -2.1006 H   0  0  0  0  0  0  0  0  0  0  0  0
   -1.7375   -0.1594    0.4713 H   0  0  0  0  0  0  0  0  0  0  0  0
    4.6485    0.7530    0.8497 H   0  0  0  0  0  0  0  0  0  0  0  0
  1  2  1  0  0  0  0
  1 38  1  0  0  0  0
  1 39  1  0  0  0  0
  1 40  1  0  0  0  0
  2  3  1  0  0  0  0
  2 33  1  0  0  0  0
  2 37  1  1  0  0  0
  3  4  1  1  0  0  0
  3  9  1  0  0  0  0
  3  5  1  0  0  0  0
  5 41  1  0  0  0  0
  5 42  1  0  0  0  0
  6  5  1  6  0  0  0
  6 12  1  0  0  0  0
  6 16  1  0  0  0  0
  6  7  1  0  0  0  0
  7  8  1  0  0  0  0
  7 43  1  0  0  0  0
  7 44  1  0  0  0  0
  8  9  1  0  0  0  0
  8 45  1  0  0  0  0
  8 46  1  0  0  0  0
  9 10  1  0  0  0  0
  9 31  1  1  0  0  0
 10 11  1  1  0  0  0
 10 26  1  0  0  0  0
 10 12  1  0  0  0  0
 12 20  1  1  0  0  0
 12 13  1  0  0  0  0
 13 14  1  0  0  0  0
 13 47  1  0  0  0  0
 13 48  1  0  0  0  0
 14 15  1  0  0  0  0
 14 49  1  0  0  0  0
 14 50  1  0  0  0  0
 15 16  1  0  0  0  0
 15 27  1  0  0  0  0
 15 76  1  6  0  0  0
 16 17  1  6  0  0  0
 16 18  1  0  0  0  0
 18 19  1  0  0  0  0
 18 51  1  0  0  0  0
 18 52  1  0  0  0  0
 19 24  2  0  0  0  0
 19 20  1  0  0  0  0
 20 21  2  0  0  0  0
 21 22  1  0  0  0  0
 21 26  1  0  0  0  0
 22 23  2  0  0  0  0
 22 25  1  0  0  0  0
 23 24  1  0  0  0  0
 23 53  1  0  0  0  0
 24 54  1  0  0  0  0
 25 55  1  0  0  0  0
 27 28  1  0  0  0  0
 27 56  1  0  0  0  0
 27 57  1  0  0  0  0
 28 30  1  0  0  0  0
 28 29  1  0  0  0  0
 28 58  1  0  0  0  0
 29 30  1  0  0  0  0
 29 59  1  0  0  0  0
 29 60  1  0  0  0  0
 30 61  1  0  0  0  0
 30 62  1  0  0  0  0
 31 32  1  0  0  0  0
 32 63  1  0  0  0  0
 32 64  1  0  0  0  0
 32 65  1  0  0  0  0
 33 34  1  0  0  0  0
 33 35  1  0  0  0  0
 33 36  1  0  0  0  0
 34 66  1  0  0  0  0
 34 67  1  0  0  0  0
 34 68  1  0  0  0  0
 35 69  1  0  0  0  0
 35 70  1  0  0  0  0
 35 71  1  0  0  0  0
 36 72  1  0  0  0  0
 36 73  1  0  0  0  0
 36 74  1  0  0  0  0
 37 75  1  0  0  0  0
M  CHG  1  15   1
M  END
$$$$
