ZINC01532179
 OpenBabel08292219463D

 42 41  0  0  0  0  0  0  0  0999 V2000
   -2.3961   15.5433    7.4202 C   0  0  0  0  0  0  0  0  0  0  0  0
   -2.2248   14.0266    7.5271 C   0  0  0  0  0  0  0  0  0  0  0  0
   -1.7970   13.4648    6.1698 C   0  0  0  0  0  0  0  0  0  0  0  0
   -1.6257   11.9482    6.2767 C   0  0  0  0  0  0  0  0  0  0  0  0
   -1.1980   11.3863    4.9194 C   0  0  0  0  0  0  0  0  0  0  0  0
   -1.0267    9.8697    5.0264 C   0  0  0  0  0  0  0  0  0  0  0  0
   -0.5989    9.3078    3.6691 C   0  0  0  0  0  0  0  0  0  0  0  0
   -0.4276    7.7912    3.7760 C   0  0  0  0  0  0  0  0  0  0  0  0
    0.0002    7.2293    2.4187 C   0  0  0  0  0  0  0  0  0  0  0  0
    0.1715    5.7127    2.5256 C   0  0  0  0  0  0  0  0  0  0  0  0
    0.5992    5.1508    1.1683 C   0  0  0  0  0  0  0  0  0  0  0  0
    0.7705    3.6342    1.2753 C   0  0  0  0  0  0  0  0  0  0  0  0
    1.1700    3.1094    0.0076 O   0  0  0  0  0  0  0  0  0  0  0  0
    1.3708    1.6007   -0.0024 S   0  0  0  0  0  0  0  0  0  0  0  0
    1.9822    1.2642    1.2353 O   0  0  0  0  0  0  0  0  0  0  0  0
    1.9585    1.2775   -1.2552 O   0  0  0  0  0  0  0  0  0  0  0  0
   -1.4504   15.9955    7.1214 H   0  0  0  0  0  0  0  0  0  0  0  0
   -3.1590   15.7712    6.6758 H   0  0  0  0  0  0  0  0  0  0  0  0
   -2.7008   15.9436    8.3871 H   0  0  0  0  0  0  0  0  0  0  0  0
   -3.1705   13.5744    7.8258 H   0  0  0  0  0  0  0  0  0  0  0  0
   -1.4618   13.7988    8.2714 H   0  0  0  0  0  0  0  0  0  0  0  0
   -0.8513   13.9171    5.8710 H   0  0  0  0  0  0  0  0  0  0  0  0
   -2.5600   13.6927    5.4254 H   0  0  0  0  0  0  0  0  0  0  0  0
   -2.5714   11.4959    6.5755 H   0  0  0  0  0  0  0  0  0  0  0  0
   -0.8628   11.7203    7.0211 H   0  0  0  0  0  0  0  0  0  0  0  0
   -0.2523   11.8386    4.6207 H   0  0  0  0  0  0  0  0  0  0  0  0
   -1.9609   11.6142    4.1751 H   0  0  0  0  0  0  0  0  0  0  0  0
   -1.9723    9.4174    5.3251 H   0  0  0  0  0  0  0  0  0  0  0  0
   -0.2637    9.6418    5.7707 H   0  0  0  0  0  0  0  0  0  0  0  0
    0.3468    9.7601    3.3703 H   0  0  0  0  0  0  0  0  0  0  0  0
   -1.3618    9.5357    2.9247 H   0  0  0  0  0  0  0  0  0  0  0  0
   -1.3733    7.3389    4.0747 H   0  0  0  0  0  0  0  0  0  0  0  0
    0.3353    7.5633    4.5204 H   0  0  0  0  0  0  0  0  0  0  0  0
    0.9458    7.6816    2.1200 H   0  0  0  0  0  0  0  0  0  0  0  0
   -0.7628    7.4572    1.6743 H   0  0  0  0  0  0  0  0  0  0  0  0
   -0.7742    5.2604    2.8244 H   0  0  0  0  0  0  0  0  0  0  0  0
    0.9344    5.4848    3.2700 H   0  0  0  0  0  0  0  0  0  0  0  0
    1.5449    5.6031    0.8696 H   0  0  0  0  0  0  0  0  0  0  0  0
   -0.1637    5.3787    0.4240 H   0  0  0  0  0  0  0  0  0  0  0  0
   -0.1751    3.1819    1.5740 H   0  0  0  0  0  0  0  0  0  0  0  0
    1.5335    3.4063    2.0196 H   0  0  0  0  0  0  0  0  0  0  0  0
   -0.0110    0.9628    0.0073 O   0  0  0  0  0  1  0  0  0  0  0  0
  1  2  1  0  0  0  0
  1 17  1  0  0  0  0
  1 18  1  0  0  0  0
  1 19  1  0  0  0  0
  2  3  1  0  0  0  0
  2 20  1  0  0  0  0
  2 21  1  0  0  0  0
  3  4  1  0  0  0  0
  3 22  1  0  0  0  0
  3 23  1  0  0  0  0
  4  5  1  0  0  0  0
  4 24  1  0  0  0  0
  4 25  1  0  0  0  0
  5  6  1  0  0  0  0
  5 26  1  0  0  0  0
  5 27  1  0  0  0  0
  6  7  1  0  0  0  0
  6 28  1  0  0  0  0
  6 29  1  0  0  0  0
  7  8  1  0  0  0  0
  7 30  1  0  0  0  0
  7 31  1  0  0  0  0
  8  9  1  0  0  0  0
  8 32  1  0  0  0  0
  8 33  1  0  0  0  0
  9 10  1  0  0  0  0
  9 34  1  0  0  0  0
  9 35  1  0  0  0  0
 10 11  1  0  0  0  0
 10 36  1  0  0  0  0
 10 37  1  0  0  0  0
 11 12  1  0  0  0  0
 11 38  1  0  0  0  0
 11 39  1  0  0  0  0
 12 13  1  0  0  0  0
 12 40  1  0  0  0  0
 12 41  1  0  0  0  0
 13 14  1  0  0  0  0
 14 15  2  0  0  0  0
 14 16  2  0  0  0  0
 14 42  1  0  0  0  0
M  END
$$$$
