ZINC00004759
 OpenBabel08292219463D

 46 47  0  0  1  0  0  0  0  0999 V2000
    1.0727    1.6420    1.7121 C   0  0  0  0  0  0  0  0  0  0  0  0
    0.6546    0.2459    1.2461 C   0  0  0  0  0  0  0  0  0  0  0  0
   -0.8021   -0.0080    1.6391 C   0  0  0  0  0  0  0  0  0  0  0  0
    0.7964    0.1521   -0.2745 C   0  0  0  0  0  0  0  0  0  0  0  0
    2.2729    0.2721   -0.6574 C   0  0  2  0  0  0  0  0  0  0  0  0
    2.6780    1.2010   -0.2560 H   0  0  0  0  0  0  0  0  0  0  0  0
    2.4059    0.2743   -2.1816 C   0  0  0  0  0  0  0  0  0  0  0  0
    3.7757    0.7645   -2.6797 C   0  0  0  0  0  0  0  0  0  0  0  0
    3.0177    1.5035   -3.7951 C   0  0  0  0  0  0  0  0  0  0  0  0
    1.8042    1.5213   -2.8507 C   0  0  0  0  0  0  0  0  0  0  0  0
    1.9615   -1.0215   -2.8096 C   0  0  0  0  0  0  0  0  0  0  0  0
    0.6324   -1.3973   -2.7518 C   0  0  0  0  0  0  0  0  0  0  0  0
    0.2242   -2.5856   -3.3276 C   0  0  0  0  0  0  0  0  0  0  0  0
    1.1461   -3.3991   -3.9620 C   0  0  0  0  0  0  0  0  0  0  0  0
    2.4761   -3.0226   -4.0195 C   0  0  0  0  0  0  0  0  0  0  0  0
    2.8821   -1.8313   -3.4482 C   0  0  0  0  0  0  0  0  0  0  0  0
    0.6343   -4.8921   -4.6849 Cl  0  0  0  0  0  0  0  0  0  0  0  0
    3.0167   -0.8667   -0.1025 N   0  3  0  0  0  0  0  0  0  0  0  0
    2.3812   -2.1208   -0.5282 C   0  0  0  0  0  0  0  0  0  0  0  0
    4.4024   -0.8302   -0.5888 C   0  0  0  0  0  0  0  0  0  0  0  0
    2.1105    1.8228    1.4322 H   0  0  0  0  0  0  0  0  0  0  0  0
    0.4338    2.3888    1.2409 H   0  0  0  0  0  0  0  0  0  0  0  0
    0.9717    1.7088    2.7954 H   0  0  0  0  0  0  0  0  0  0  0  0
    1.2935   -0.5009    1.7173 H   0  0  0  0  0  0  0  0  0  0  0  0
   -1.4410    0.7389    1.1678 H   0  0  0  0  0  0  0  0  0  0  0  0
   -1.0999   -1.0025    1.3070 H   0  0  0  0  0  0  0  0  0  0  0  0
   -0.9031    0.0588    2.7223 H   0  0  0  0  0  0  0  0  0  0  0  0
    0.4090   -0.8074   -0.6170 H   0  0  0  0  0  0  0  0  0  0  0  0
    0.2330    0.9594   -0.7424 H   0  0  0  0  0  0  0  0  0  0  0  0
    4.2819    1.4302   -1.9805 H   0  0  0  0  0  0  0  0  0  0  0  0
    4.4193   -0.0357   -3.0452 H   0  0  0  0  0  0  0  0  0  0  0  0
    3.4169    2.4944   -4.0118 H   0  0  0  0  0  0  0  0  0  0  0  0
    2.8647    0.9024   -4.6914 H   0  0  0  0  0  0  0  0  0  0  0  0
    0.8562    1.3322   -3.3543 H   0  0  0  0  0  0  0  0  0  0  0  0
    1.7714    2.3939   -2.1983 H   0  0  0  0  0  0  0  0  0  0  0  0
   -0.0871   -0.7623   -2.2563 H   0  0  0  0  0  0  0  0  0  0  0  0
   -0.8141   -2.8792   -3.2821 H   0  0  0  0  0  0  0  0  0  0  0  0
    3.1963   -3.6574   -4.5142 H   0  0  0  0  0  0  0  0  0  0  0  0
    3.9195   -1.5349   -3.4972 H   0  0  0  0  0  0  0  0  0  0  0  0
    2.7203   -2.9354    0.1117 H   0  0  0  0  0  0  0  0  0  0  0  0
    1.2983   -2.0242   -0.4503 H   0  0  0  0  0  0  0  0  0  0  0  0
    2.6536   -2.3335   -1.5620 H   0  0  0  0  0  0  0  0  0  0  0  0
    4.8212    0.1616   -0.4185 H   0  0  0  0  0  0  0  0  0  0  0  0
    4.9951   -1.5717   -0.0532 H   0  0  0  0  0  0  0  0  0  0  0  0
    4.4190   -1.0533   -1.6556 H   0  0  0  0  0  0  0  0  0  0  0  0
    3.0123   -0.8125    0.9050 H   0  0  0  0  0  0  0  0  0  0  0  0
  1  2  1  0  0  0  0
  1 21  1  0  0  0  0
  1 22  1  0  0  0  0
  1 23  1  0  0  0  0
  2  3  1  0  0  0  0
  2  4  1  0  0  0  0
  2 24  1  0  0  0  0
  3 25  1  0  0  0  0
  3 26  1  0  0  0  0
  3 27  1  0  0  0  0
  4  5  1  0  0  0  0
  4 28  1  0  0  0  0
  4 29  1  0  0  0  0
  5  6  1  1  0  0  0
  5  7  1  0  0  0  0
  5 18  1  0  0  0  0
  7 10  1  0  0  0  0
  7  8  1  0  0  0  0
  7 11  1  0  0  0  0
  8  9  1  0  0  0  0
  8 30  1  0  0  0  0
  8 31  1  0  0  0  0
  9 10  1  0  0  0  0
  9 32  1  0  0  0  0
  9 33  1  0  0  0  0
 10 34  1  0  0  0  0
 10 35  1  0  0  0  0
 11 16  2  0  0  0  0
 11 12  1  0  0  0  0
 12 13  2  0  0  0  0
 12 36  1  0  0  0  0
 13 14  1  0  0  0  0
 13 37  1  0  0  0  0
 14 15  2  0  0  0  0
 14 17  1  0  0  0  0
 15 16  1  0  0  0  0
 15 38  1  0  0  0  0
 16 39  1  0  0  0  0
 18 19  1  0  0  0  0
 18 20  1  0  0  0  0
 18 46  1  0  0  0  0
 19 40  1  0  0  0  0
 19 41  1  0  0  0  0
 19 42  1  0  0  0  0
 20 43  1  0  0  0  0
 20 44  1  0  0  0  0
 20 45  1  0  0  0  0
M  CHG  1  18   1
M  END
$$$$
