ZINC00537795
 OpenBabel08292219463D

 57 59  0  0  0  0  0  0  0  0999 V2000
   -0.0184    1.5028    0.0103 C   0  0  0  0  0  0  0  0  0  0  0  0
    0.0021   -0.0041    0.0020 C   0  0  0  0  0  0  0  0  0  0  0  0
    0.0058   -0.6893   -1.2048 C   0  0  0  0  0  0  0  0  0  0  0  0
    0.0236   -2.0068   -1.2170 N   0  0  0  0  0  0  0  0  0  0  0  0
    0.0386   -2.6811   -0.0703 C   0  0  0  0  0  0  0  0  0  0  0  0
    0.0353   -1.9898    1.1402 C   0  0  0  0  0  0  0  0  0  0  0  0
    0.0219   -0.6688    1.1435 N   0  0  0  0  0  0  0  0  0  0  0  0
    0.0582   -4.1624   -0.0798 C   0  0  0  0  0  0  0  0  0  0  0  0
    0.0718   -4.7766    0.9687 O   0  0  0  0  0  0  0  0  0  0  0  0
    0.0609   -4.8289   -1.2512 N   0  0  0  0  0  0  0  0  0  0  0  0
    0.0802   -6.2937   -1.2606 C   0  0  0  0  0  0  0  0  0  0  0  0
    0.0793   -6.7946   -2.7063 C   0  0  0  0  0  0  0  0  0  0  0  0
    0.0992   -8.3014   -2.7159 C   0  0  0  0  0  0  0  0  0  0  0  0
    1.3054   -8.9767   -2.7209 C   0  0  0  0  0  0  0  0  0  0  0  0
    1.3237  -10.3588   -2.7297 C   0  0  0  0  0  0  0  0  0  0  0  0
    0.1358  -11.0658   -2.7331 C   0  0  0  0  0  0  0  0  0  0  0  0
   -1.0704  -10.3905   -2.7272 C   0  0  0  0  0  0  0  0  0  0  0  0
   -1.0887   -9.0084   -2.7140 C   0  0  0  0  0  0  0  0  0  0  0  0
    0.1591  -12.8276   -2.7455 S   0  0  0  0  0  0  0  0  0  0  0  0
   -1.0815  -13.2463   -3.2976 O   0  0  0  0  0  0  0  0  0  0  0  0
    1.4090  -13.2133   -3.3007 O   0  0  0  0  0  0  0  0  0  0  0  0
    0.1677  -13.3283   -1.1670 N   0  0  0  0  0  0  0  0  0  0  0  0
    0.1849  -14.5988   -0.8877 C   0  0  0  0  0  0  0  0  0  0  0  0
    0.1957  -15.5097   -1.8853 O   0  5  0  0  0  0  0  0  0  0  0  0
    0.1920  -15.0141    0.4214 N   0  0  0  0  0  0  0  0  0  0  0  0
    0.2113  -16.4448    0.7360 C   0  0  0  0  0  0  0  0  0  0  0  0
    1.6551  -16.9508    0.7209 C   0  0  0  0  0  0  0  0  0  0  0  0
    1.6753  -18.4450    1.0494 C   0  0  0  0  0  0  0  0  0  0  0  0
    1.0704  -18.6704    2.4366 C   0  0  0  0  0  0  0  0  0  0  0  0
   -0.3735  -18.1644    2.4516 C   0  0  0  0  0  0  0  0  0  0  0  0
   -0.3937  -16.6702    2.1231 C   0  0  0  0  0  0  0  0  0  0  0  0
    1.0042    1.8801    0.0026 H   0  0  0  0  0  0  0  0  0  0  0  0
   -0.5455    1.8639   -0.8728 H   0  0  0  0  0  0  0  0  0  0  0  0
   -0.5286    1.8543    0.9071 H   0  0  0  0  0  0  0  0  0  0  0  0
   -0.0064   -0.1417   -2.1356 H   0  0  0  0  0  0  0  0  0  0  0  0
    0.0473   -2.5331    2.0735 H   0  0  0  0  0  0  0  0  0  0  0  0
    0.0500   -4.3386   -2.0882 H   0  0  0  0  0  0  0  0  0  0  0  0
    0.9777   -6.6484   -0.7538 H   0  0  0  0  0  0  0  0  0  0  0  0
   -0.8021   -6.6720   -0.7444 H   0  0  0  0  0  0  0  0  0  0  0  0
   -0.8181   -6.4398   -3.2131 H   0  0  0  0  0  0  0  0  0  0  0  0
    0.9617   -6.4162   -3.2224 H   0  0  0  0  0  0  0  0  0  0  0  0
    2.2335   -8.4243   -2.7182 H   0  0  0  0  0  0  0  0  0  0  0  0
    2.2661  -10.8864   -2.7343 H   0  0  0  0  0  0  0  0  0  0  0  0
   -1.9985  -10.9429   -2.7302 H   0  0  0  0  0  0  0  0  0  0  0  0
   -2.0310   -8.4808   -2.7057 H   0  0  0  0  0  0  0  0  0  0  0  0
    0.1842  -14.3600    1.1377 H   0  0  0  0  0  0  0  0  0  0  0  0
   -0.3719  -16.9881   -0.0075 H   0  0  0  0  0  0  0  0  0  0  0  0
    2.0861  -16.7902   -0.2673 H   0  0  0  0  0  0  0  0  0  0  0  0
    2.2384  -16.4074    1.4644 H   0  0  0  0  0  0  0  0  0  0  0  0
    1.0921  -18.9883    0.3060 H   0  0  0  0  0  0  0  0  0  0  0  0
    2.7039  -18.8055    1.0387 H   0  0  0  0  0  0  0  0  0  0  0  0
    1.0847  -19.7349    2.6706 H   0  0  0  0  0  0  0  0  0  0  0  0
    1.6536  -18.1270    3.1800 H   0  0  0  0  0  0  0  0  0  0  0  0
   -0.9567  -18.7077    1.7082 H   0  0  0  0  0  0  0  0  0  0  0  0
   -0.8045  -18.3250    3.4398 H   0  0  0  0  0  0  0  0  0  0  0  0
    0.1896  -16.1268    2.8665 H   0  0  0  0  0  0  0  0  0  0  0  0
   -1.4223  -16.3097    2.1338 H   0  0  0  0  0  0  0  0  0  0  0  0
  1  2  1  0  0  0  0
  1 32  1  0  0  0  0
  1 33  1  0  0  0  0
  1 34  1  0  0  0  0
  2  7  2  0  0  0  0
  2  3  1  0  0  0  0
  3  4  2  0  0  0  0
  3 35  1  0  0  0  0
  4  5  1  0  0  0  0
  5  6  2  0  0  0  0
  5  8  1  0  0  0  0
  6  7  1  0  0  0  0
  6 36  1  0  0  0  0
  8  9  2  0  0  0  0
  8 10  1  0  0  0  0
 10 11  1  0  0  0  0
 10 37  1  0  0  0  0
 11 12  1  0  0  0  0
 11 38  1  0  0  0  0
 11 39  1  0  0  0  0
 12 13  1  0  0  0  0
 12 40  1  0  0  0  0
 12 41  1  0  0  0  0
 13 18  2  0  0  0  0
 13 14  1  0  0  0  0
 14 15  2  0  0  0  0
 14 42  1  0  0  0  0
 15 16  1  0  0  0  0
 15 43  1  0  0  0  0
 16 17  2  0  0  0  0
 16 19  1  0  0  0  0
 17 18  1  0  0  0  0
 17 44  1  0  0  0  0
 18 45  1  0  0  0  0
 19 20  2  0  0  0  0
 19 21  2  0  0  0  0
 19 22  1  0  0  0  0
 22 23  2  0  0  0  0
 23 24  1  0  0  0  0
 23 25  1  0  0  0  0
 25 26  1  0  0  0  0
 25 46  1  0  0  0  0
 26 31  1  0  0  0  0
 26 27  1  0  0  0  0
 26 47  1  0  0  0  0
 27 28  1  0  0  0  0
 27 48  1  0  0  0  0
 27 49  1  0  0  0  0
 28 29  1  0  0  0  0
 28 50  1  0  0  0  0
 28 51  1  0  0  0  0
 29 30  1  0  0  0  0
 29 52  1  0  0  0  0
 29 53  1  0  0  0  0
 30 31  1  0  0  0  0
 30 54  1  0  0  0  0
 30 55  1  0  0  0  0
 31 56  1  0  0  0  0
 31 57  1  0  0  0  0
M  CHG  1  24  -1
M  END
$$$$
