ZINC96006014
 OpenBabel08292219463D

139144  0  0  1  0  0  0  0  0999 V2000
    5.4030    0.2387    1.3094 C   0  0  0  0  0  0  0  0  0  0  0  0
    4.4453    0.3872    0.2055 N   0  3  2  0  0  0  0  0  0  0  0  0
    4.1055    1.8083    0.0365 C   0  0  0  0  0  0  0  0  0  0  0  0
    3.7822    2.3989    1.4094 C   0  0  0  0  0  0  0  0  0  0  0  0
    2.7688    1.5317    2.1123 C   0  0  0  0  0  0  0  0  0  0  0  0
    2.0879    2.0566    3.2003 C   0  0  0  0  0  0  0  0  0  0  0  0
    1.1528    1.2918    3.8747 C   0  0  0  0  0  0  0  0  0  0  0  0
    0.8966   -0.0108    3.4560 C   0  0  0  0  0  0  0  0  0  0  0  0
    1.5774   -0.5286    2.3690 C   0  0  0  0  0  0  0  0  0  0  0  0
    2.5135    0.2425    1.6949 C   0  0  0  0  0  0  0  0  0  0  0  0
    3.2235   -0.3620    0.5121 C   0  0  2  0  0  0  0  0  0  0  0  0
    2.5619   -0.3404   -0.3539 H   0  0  0  0  0  0  0  0  0  0  0  0
    3.5885   -1.8133    0.8307 C   0  0  0  0  0  0  0  0  0  0  0  0
    3.8561   -2.5573   -0.4522 C   0  0  0  0  0  0  0  0  0  0  0  0
    2.8389   -2.7352   -1.3714 C   0  0  0  0  0  0  0  0  0  0  0  0
    3.0793   -3.4169   -2.5498 C   0  0  0  0  0  0  0  0  0  0  0  0
    4.3422   -3.9233   -2.8119 C   0  0  0  0  0  0  0  0  0  0  0  0
    5.3662   -3.7438   -1.8869 C   0  0  0  0  0  0  0  0  0  0  0  0
    5.1197   -3.0554   -0.7099 C   0  0  0  0  0  0  0  0  0  0  0  0
    6.6073   -4.2390   -2.1396 O   0  0  0  0  0  0  0  0  0  0  0  0
    7.6092   -4.0170   -1.1451 C   0  0  0  0  0  0  0  0  0  0  0  0
    4.5803   -4.5946   -3.9704 O   0  0  0  0  0  0  0  0  0  0  0  0
    3.4820   -4.7411   -4.8728 C   0  0  0  0  0  0  0  0  0  0  0  0
   -0.0198   -0.7711    4.1129 O   0  0  0  0  0  0  0  0  0  0  0  0
   -0.2300   -2.0983    3.6266 C   0  0  0  0  0  0  0  0  0  0  0  0
    0.4874    1.8100    4.9416 O   0  0  0  0  0  0  0  0  0  0  0  0
    0.8034    3.1532    5.3132 C   0  0  0  0  0  0  0  0  0  0  0  0
    5.0404   -0.1288   -1.0344 C   0  0  0  0  0  0  0  0  0  0  0  0
    4.0285   -0.0060   -2.1754 C   0  0  0  0  0  0  0  0  0  0  0  0
    4.6844   -0.4014   -3.4733 C   0  0  0  0  0  0  0  0  0  0  0  0
    5.8424   -0.7462   -3.4845 O   0  0  0  0  0  0  0  0  0  0  0  0
    3.9822   -0.3707   -4.6168 O   0  0  0  0  0  0  0  0  0  0  0  0
    4.6673   -0.7584   -5.8094 C   0  0  0  0  0  0  0  0  0  0  0  0
    3.7125   -0.6603   -7.0009 C   0  0  0  0  0  0  0  0  0  0  0  0
    4.4460   -1.0755   -8.2778 C   0  0  0  0  0  0  0  0  0  0  0  0
    3.4912   -0.9773   -9.4693 C   0  0  0  0  0  0  0  0  0  0  0  0
    4.2247   -1.3925  -10.7462 C   0  0  0  0  0  0  0  0  0  0  0  0
    3.3329   -1.3008  -11.8590 O   0  0  0  0  0  0  0  0  0  0  0  0
    3.8246   -1.6331  -13.0630 C   0  0  0  0  0  0  0  0  0  0  0  0
    4.9742   -1.9899  -13.1685 O   0  0  0  0  0  0  0  0  0  0  0  0
    2.9430   -1.5610  -14.2831 C   0  0  0  0  0  0  0  0  0  0  0  0
    3.7009   -2.1107  -15.4932 C   0  0  0  0  0  0  0  0  0  0  0  0
    2.8858   -1.9349  -16.7026 N   0  3  2  0  0  0  0  0  0  0  0  0
    3.6383   -2.4049  -17.8758 C   0  0  0  0  0  0  0  0  0  0  0  0
    2.6791   -2.5032  -19.0627 C   0  0  0  0  0  0  0  0  0  0  0  0
    1.9166   -1.2110  -19.2111 C   0  0  0  0  0  0  0  0  0  0  0  0
    1.2614   -0.9615  -20.4075 C   0  0  0  0  0  0  0  0  0  0  0  0
    0.5485    0.2112  -20.5824 C   0  0  0  0  0  0  0  0  0  0  0  0
    0.4901    1.1428  -19.5497 C   0  0  0  0  0  0  0  0  0  0  0  0
    1.1464    0.8891  -18.3588 C   0  0  0  0  0  0  0  0  0  0  0  0
    1.8620   -0.2874  -18.1886 C   0  0  0  0  0  0  0  0  0  0  0  0
    2.5676   -0.5151  -16.8775 C   0  0  2  0  0  0  0  0  0  0  0  0
    1.9234   -0.1880  -16.0613 H   0  0  0  0  0  0  0  0  0  0  0  0
    3.8630    0.2988  -16.8537 C   0  0  0  0  0  0  0  0  0  0  0  0
    3.5370    1.7654  -16.9711 C   0  0  0  0  0  0  0  0  0  0  0  0
    3.6140    2.3929  -18.2007 C   0  0  0  0  0  0  0  0  0  0  0  0
    3.3160    3.7380  -18.3136 C   0  0  0  0  0  0  0  0  0  0  0  0
    2.9386    4.4605  -17.1930 C   0  0  0  0  0  0  0  0  0  0  0  0
    2.8606    3.8288  -15.9555 C   0  0  0  0  0  0  0  0  0  0  0  0
    3.1560    2.4792  -15.8501 C   0  0  0  0  0  0  0  0  0  0  0  0
    2.4907    4.5336  -14.8528 O   0  0  0  0  0  0  0  0  0  0  0  0
    2.5396    3.8495  -13.5991 C   0  0  0  0  0  0  0  0  0  0  0  0
    2.6455    5.7839  -17.3022 O   0  0  0  0  0  0  0  0  0  0  0  0
    2.7475    6.3657  -18.6034 C   0  0  0  0  0  0  0  0  0  0  0  0
   -0.2090    2.2980  -19.7112 O   0  0  0  0  0  0  0  0  0  0  0  0
   -0.2244    3.2066  -18.6084 C   0  0  0  0  0  0  0  0  0  0  0  0
   -0.0925    0.4525  -21.7573 O   0  0  0  0  0  0  0  0  0  0  0  0
    0.0118   -0.5495  -22.7709 C   0  0  0  0  0  0  0  0  0  0  0  0
    1.6417   -2.7052  -16.5732 C   0  0  0  0  0  0  0  0  0  0  0  0
    5.7801   -0.7838    1.3282 H   0  0  0  0  0  0  0  0  0  0  0  0
    6.2336    0.9297    1.1652 H   0  0  0  0  0  0  0  0  0  0  0  0
    4.9060    0.4601    2.2539 H   0  0  0  0  0  0  0  0  0  0  0  0
    4.9527    2.3378   -0.3994 H   0  0  0  0  0  0  0  0  0  0  0  0
    3.2373    1.9019   -0.6158 H   0  0  0  0  0  0  0  0  0  0  0  0
    4.6930    2.4483    2.0062 H   0  0  0  0  0  0  0  0  0  0  0  0
    3.3763    3.4029    1.2856 H   0  0  0  0  0  0  0  0  0  0  0  0
    2.2889    3.0674    3.5231 H   0  0  0  0  0  0  0  0  0  0  0  0
    1.3795   -1.5392    2.0433 H   0  0  0  0  0  0  0  0  0  0  0  0
    4.4810   -1.8346    1.4561 H   0  0  0  0  0  0  0  0  0  0  0  0
    2.7624   -2.2878    1.3603 H   0  0  0  0  0  0  0  0  0  0  0  0
    1.8541   -2.3410   -1.1683 H   0  0  0  0  0  0  0  0  0  0  0  0
    2.2828   -3.5552   -3.2659 H   0  0  0  0  0  0  0  0  0  0  0  0
    5.9136   -2.9115    0.0080 H   0  0  0  0  0  0  0  0  0  0  0  0
    7.7455   -2.9454   -0.9995 H   0  0  0  0  0  0  0  0  0  0  0  0
    7.2970   -4.4744   -0.2064 H   0  0  0  0  0  0  0  0  0  0  0  0
    8.5495   -4.4618   -1.4710 H   0  0  0  0  0  0  0  0  0  0  0  0
    2.6764   -5.2849   -4.3795 H   0  0  0  0  0  0  0  0  0  0  0  0
    3.1247   -3.7561   -5.1732 H   0  0  0  0  0  0  0  0  0  0  0  0
    3.8071   -5.2939   -5.7541 H   0  0  0  0  0  0  0  0  0  0  0  0
   -0.5715   -2.0564    2.5924 H   0  0  0  0  0  0  0  0  0  0  0  0
    0.7048   -2.6565    3.6783 H   0  0  0  0  0  0  0  0  0  0  0  0
   -0.9836   -2.5943    4.2383 H   0  0  0  0  0  0  0  0  0  0  0  0
    0.2037    3.4420    6.1764 H   0  0  0  0  0  0  0  0  0  0  0  0
    1.8614    3.2206    5.5669 H   0  0  0  0  0  0  0  0  0  0  0  0
    0.5863    3.8214    4.4799 H   0  0  0  0  0  0  0  0  0  0  0  0
    5.9329    0.4481   -1.2766 H   0  0  0  0  0  0  0  0  0  0  0  0
    5.3103   -1.1762   -0.8994 H   0  0  0  0  0  0  0  0  0  0  0  0
    3.1808   -0.6632   -1.9817 H   0  0  0  0  0  0  0  0  0  0  0  0
    3.6809    1.0249   -2.2433 H   0  0  0  0  0  0  0  0  0  0  0  0
    5.5187   -0.0972   -5.9707 H   0  0  0  0  0  0  0  0  0  0  0  0
    5.0186   -1.7853   -5.7091 H   0  0  0  0  0  0  0  0  0  0  0  0
    2.8611   -1.3215   -6.8397 H   0  0  0  0  0  0  0  0  0  0  0  0
    3.3611    0.3666   -7.1013 H   0  0  0  0  0  0  0  0  0  0  0  0
    5.2974   -0.4143   -8.4391 H   0  0  0  0  0  0  0  0  0  0  0  0
    4.7973   -2.1024   -8.1774 H   0  0  0  0  0  0  0  0  0  0  0  0
    2.6398   -1.6385   -9.3080 H   0  0  0  0  0  0  0  0  0  0  0  0
    3.1398    0.0496   -9.5697 H   0  0  0  0  0  0  0  0  0  0  0  0
    5.0761   -0.7313  -10.9075 H   0  0  0  0  0  0  0  0  0  0  0  0
    4.5760   -2.4194  -10.6458 H   0  0  0  0  0  0  0  0  0  0  0  0
    2.0439   -2.1546  -14.1172 H   0  0  0  0  0  0  0  0  0  0  0  0
    2.6644   -0.5238  -14.4693 H   0  0  0  0  0  0  0  0  0  0  0  0
    4.6418   -1.5724  -15.6077 H   0  0  0  0  0  0  0  0  0  0  0  0
    3.9047   -3.1709  -15.3433 H   0  0  0  0  0  0  0  0  0  0  0  0
    4.4351   -1.6979  -18.1068 H   0  0  0  0  0  0  0  0  0  0  0  0
    4.0650   -3.3861  -17.6679 H   0  0  0  0  0  0  0  0  0  0  0  0
    3.2473   -2.6952  -19.9729 H   0  0  0  0  0  0  0  0  0  0  0  0
    1.9778   -3.3206  -18.8952 H   0  0  0  0  0  0  0  0  0  0  0  0
    1.3081   -1.6862  -21.2069 H   0  0  0  0  0  0  0  0  0  0  0  0
    1.1018    1.6111  -17.5568 H   0  0  0  0  0  0  0  0  0  0  0  0
    4.3889    0.1174  -15.9164 H   0  0  0  0  0  0  0  0  0  0  0  0
    4.4957   -0.0008  -17.6892 H   0  0  0  0  0  0  0  0  0  0  0  0
    3.9080    1.8309  -19.0748 H   0  0  0  0  0  0  0  0  0  0  0  0
    3.3776    4.2259  -19.2751 H   0  0  0  0  0  0  0  0  0  0  0  0
    3.0927    1.9857  -14.8915 H   0  0  0  0  0  0  0  0  0  0  0  0
    1.8136    3.0365  -13.6003 H   0  0  0  0  0  0  0  0  0  0  0  0
    3.5394    3.4436  -13.4454 H   0  0  0  0  0  0  0  0  0  0  0  0
    2.3030    4.5467  -12.7953 H   0  0  0  0  0  0  0  0  0  0  0  0
    3.7689    6.2608  -18.9693 H   0  0  0  0  0  0  0  0  0  0  0  0
    2.0639    5.8573  -19.2834 H   0  0  0  0  0  0  0  0  0  0  0  0
    2.4875    7.4229  -18.5502 H   0  0  0  0  0  0  0  0  0  0  0  0
   -0.8156    4.0845  -18.8690 H   0  0  0  0  0  0  0  0  0  0  0  0
   -0.6649    2.7167  -17.7400 H   0  0  0  0  0  0  0  0  0  0  0  0
    0.7956    3.5118  -18.3748 H   0  0  0  0  0  0  0  0  0  0  0  0
   -0.5435   -0.2325  -23.6536 H   0  0  0  0  0  0  0  0  0  0  0  0
    1.0600   -0.6932  -23.0332 H   0  0  0  0  0  0  0  0  0  0  0  0
   -0.4014   -1.4870  -22.3989 H   0  0  0  0  0  0  0  0  0  0  0  0
    1.0842   -2.3520  -15.7057 H   0  0  0  0  0  0  0  0  0  0  0  0
    1.0380   -2.5739  -17.4711 H   0  0  0  0  0  0  0  0  0  0  0  0
    1.8798   -3.7614  -16.4466 H   0  0  0  0  0  0  0  0  0  0  0  0
  1 70  1  0  0  0  0
  1 71  1  0  0  0  0
  1 72  1  0  0  0  0
  2  1  1  1  0  0  0
  2 11  1  0  0  0  0
  2  3  1  0  0  0  0
  2 28  1  0  0  0  0
  3  4  1  0  0  0  0
  3 73  1  0  0  0  0
  3 74  1  0  0  0  0
  4  5  1  0  0  0  0
  4 75  1  0  0  0  0
  4 76  1  0  0  0  0
  5 10  2  0  0  0  0
  5  6  1  0  0  0  0
  6  7  2  0  0  0  0
  6 77  1  0  0  0  0
  7  8  1  0  0  0  0
  7 26  1  0  0  0  0
  8  9  2  0  0  0  0
  8 24  1  0  0  0  0
  9 10  1  0  0  0  0
  9 78  1  0  0  0  0
 10 11  1  0  0  0  0
 11 12  1  6  0  0  0
 11 13  1  0  0  0  0
 13 14  1  0  0  0  0
 13 79  1  0  0  0  0
 13 80  1  0  0  0  0
 14 19  2  0  0  0  0
 14 15  1  0  0  0  0
 15 16  2  0  0  0  0
 15 81  1  0  0  0  0
 16 17  1  0  0  0  0
 16 82  1  0  0  0  0
 17 18  2  0  0  0  0
 17 22  1  0  0  0  0
 18 19  1  0  0  0  0
 18 20  1  0  0  0  0
 19 83  1  0  0  0  0
 20 21  1  0  0  0  0
 21 84  1  0  0  0  0
 21 85  1  0  0  0  0
 21 86  1  0  0  0  0
 22 23  1  0  0  0  0
 23 87  1  0  0  0  0
 23 88  1  0  0  0  0
 23 89  1  0  0  0  0
 24 25  1  0  0  0  0
 25 90  1  0  0  0  0
 25 91  1  0  0  0  0
 25 92  1  0  0  0  0
 26 27  1  0  0  0  0
 27 93  1  0  0  0  0
 27 94  1  0  0  0  0
 27 95  1  0  0  0  0
 28 29  1  0  0  0  0
 28 96  1  0  0  0  0
 28 97  1  0  0  0  0
 29 30  1  0  0  0  0
 29 98  1  0  0  0  0
 29 99  1  0  0  0  0
 30 31  2  0  0  0  0
 30 32  1  0  0  0  0
 32 33  1  0  0  0  0
 33 34  1  0  0  0  0
 33100  1  0  0  0  0
 33101  1  0  0  0  0
 34 35  1  0  0  0  0
 34102  1  0  0  0  0
 34103  1  0  0  0  0
 35 36  1  0  0  0  0
 35104  1  0  0  0  0
 35105  1  0  0  0  0
 36 37  1  0  0  0  0
 36106  1  0  0  0  0
 36107  1  0  0  0  0
 37 38  1  0  0  0  0
 37108  1  0  0  0  0
 37109  1  0  0  0  0
 38 39  1  0  0  0  0
 39 40  2  0  0  0  0
 39 41  1  0  0  0  0
 41 42  1  0  0  0  0
 41110  1  0  0  0  0
 41111  1  0  0  0  0
 42112  1  0  0  0  0
 42113  1  0  0  0  0
 43 42  1  1  0  0  0
 43 52  1  0  0  0  0
 43 44  1  0  0  0  0
 43 69  1  0  0  0  0
 44 45  1  0  0  0  0
 44114  1  0  0  0  0
 44115  1  0  0  0  0
 45 46  1  0  0  0  0
 45116  1  0  0  0  0
 45117  1  0  0  0  0
 46 51  2  0  0  0  0
 46 47  1  0  0  0  0
 47 48  2  0  0  0  0
 47118  1  0  0  0  0
 48 49  1  0  0  0  0
 48 67  1  0  0  0  0
 49 50  2  0  0  0  0
 49 65  1  0  0  0  0
 50 51  1  0  0  0  0
 50119  1  0  0  0  0
 51 52  1  0  0  0  0
 52 53  1  1  0  0  0
 52 54  1  0  0  0  0
 54 55  1  0  0  0  0
 54120  1  0  0  0  0
 54121  1  0  0  0  0
 55 60  2  0  0  0  0
 55 56  1  0  0  0  0
 56 57  2  0  0  0  0
 56122  1  0  0  0  0
 57 58  1  0  0  0  0
 57123  1  0  0  0  0
 58 59  2  0  0  0  0
 58 63  1  0  0  0  0
 59 60  1  0  0  0  0
 59 61  1  0  0  0  0
 60124  1  0  0  0  0
 61 62  1  0  0  0  0
 62125  1  0  0  0  0
 62126  1  0  0  0  0
 62127  1  0  0  0  0
 63 64  1  0  0  0  0
 64128  1  0  0  0  0
 64129  1  0  0  0  0
 64130  1  0  0  0  0
 65 66  1  0  0  0  0
 66131  1  0  0  0  0
 66132  1  0  0  0  0
 66133  1  0  0  0  0
 67 68  1  0  0  0  0
 68134  1  0  0  0  0
 68135  1  0  0  0  0
 68136  1  0  0  0  0
 69137  1  0  0  0  0
 69138  1  0  0  0  0
 69139  1  0  0  0  0
M  CHG  2   2   1  43   1
M  END
$$$$
