ZINC17146904
 OpenBabel08292219463D

 33 34  0  0  0  0  0  0  0  0999 V2000
    0.0216    1.5288    0.0301 C   0  0  0  0  0  0  0  0  0  0  0  0
    0.0309   -0.0011    0.0158 C   0  0  0  0  0  0  0  0  0  0  0  0
    0.7466   -0.4951   -1.2430 C   0  0  0  0  0  0  0  0  0  0  0  0
    0.7576   -2.3090   -1.2600 S   0  0  0  0  0  0  0  0  0  0  0  0
    1.6048   -2.7162   -2.7503 C   0  0  0  0  0  0  0  0  0  0  0  0
    2.0807   -1.7037   -3.5775 C   0  0  0  0  0  0  0  0  0  0  0  0
    2.7452   -2.0164   -4.7454 C   0  0  0  0  0  0  0  0  0  0  0  0
    2.9404   -3.3446   -5.0980 C   0  0  0  0  0  0  0  0  0  0  0  0
    2.4641   -4.3633   -4.2703 C   0  0  0  0  0  0  0  0  0  0  0  0
    1.8010   -4.0456   -3.0940 C   0  0  0  0  0  0  0  0  0  0  0  0
    2.8015   -5.5723   -4.8714 N   0  0  0  0  0  0  0  0  0  0  0  0
    2.5993   -6.4552   -4.5244 H   0  0  0  0  0  0  0  0  0  0  0  0
    3.4629   -5.3036   -6.0295 C   0  0  0  0  0  0  0  0  0  0  0  0
    3.5587   -3.9565   -6.1873 N   0  0  0  0  0  0  0  0  0  0  0  0
    3.9390   -6.2126   -6.8722 N   0  0  0  0  0  0  0  0  0  0  0  0
    3.8829   -7.5101   -6.5572 C   0  0  0  0  0  0  0  0  0  0  0  0
    3.3103   -7.8662   -5.5432 O   0  0  0  0  0  0  0  0  0  0  0  0
    4.4608   -8.4259   -7.3631 O   0  0  0  0  0  0  0  0  0  0  0  0
    4.3621   -9.7948   -6.9649 C   0  0  0  0  0  0  0  0  0  0  0  0
    1.0471    1.8984    0.0265 H   0  0  0  0  0  0  0  0  0  0  0  0
   -0.5005    1.8972   -0.8529 H   0  0  0  0  0  0  0  0  0  0  0  0
   -0.4882    1.8807    0.9269 H   0  0  0  0  0  0  0  0  0  0  0  0
    0.5530   -0.3696    0.8988 H   0  0  0  0  0  0  0  0  0  0  0  0
   -0.9945   -0.3707    0.0194 H   0  0  0  0  0  0  0  0  0  0  0  0
    0.2245   -0.1266   -2.1261 H   0  0  0  0  0  0  0  0  0  0  0  0
    1.7720   -0.1255   -1.2467 H   0  0  0  0  0  0  0  0  0  0  0  0
    1.9293   -0.6698   -3.3046 H   0  0  0  0  0  0  0  0  0  0  0  0
    3.1130   -1.2280   -5.3853 H   0  0  0  0  0  0  0  0  0  0  0  0
    1.4350   -4.8313   -2.4496 H   0  0  0  0  0  0  0  0  0  0  0  0
    3.9838   -3.4999   -6.9300 H   0  0  0  0  0  0  0  0  0  0  0  0
    4.8320   -9.9244   -5.9900 H   0  0  0  0  0  0  0  0  0  0  0  0
    3.3120  -10.0803   -6.9030 H   0  0  0  0  0  0  0  0  0  0  0  0
    4.8670  -10.4238   -7.6981 H   0  0  0  0  0  0  0  0  0  0  0  0
  1  2  1  0  0  0  0
  1 20  1  0  0  0  0
  1 21  1  0  0  0  0
  1 22  1  0  0  0  0
  2  3  1  0  0  0  0
  2 23  1  0  0  0  0
  2 24  1  0  0  0  0
  3  4  1  0  0  0  0
  3 25  1  0  0  0  0
  3 26  1  0  0  0  0
  4  5  1  0  0  0  0
  5 10  2  0  0  0  0
  5  6  1  0  0  0  0
  6  7  2  0  0  0  0
  6 27  1  0  0  0  0
  7  8  1  0  0  0  0
  7 28  1  0  0  0  0
  8 14  1  0  0  0  0
  8  9  2  0  0  0  0
  9 10  1  0  0  0  0
  9 11  1  0  0  0  0
 10 29  1  0  0  0  0
 11 13  1  0  0  0  0
 11 12  1  0  0  0  0
 13 15  2  0  0  0  0
 13 14  1  0  0  0  0
 14 30  1  0  0  0  0
 15 16  1  0  0  0  0
 16 18  1  0  0  0  0
 16 17  2  0  0  0  0
 18 19  1  0  0  0  0
 19 31  1  0  0  0  0
 19 32  1  0  0  0  0
 19 33  1  0  0  0  0
M  END
$$$$
