ZINC19364226
 OpenBabel08292219463D

 65 68  0  0  1  0  0  0  0  0999 V2000
   -0.8323   -7.7871   -0.0276 C   0  0  0  0  0  0  0  0  0  0  0  0
    0.3165   -6.9828   -0.6393 C   0  0  0  0  0  0  0  0  0  0  0  0
    0.4677   -7.3518   -2.1164 C   0  0  0  0  0  0  0  0  0  0  0  0
    1.6156   -7.3042    0.1022 C   0  0  0  0  0  0  0  0  0  0  0  0
    0.0195   -5.5104   -0.5172 C   0  0  0  0  0  0  0  0  0  0  0  0
   -0.1587   -4.9423    0.7304 C   0  0  0  0  0  0  0  0  0  0  0  0
   -0.4311   -3.5917    0.8423 C   0  0  0  0  0  0  0  0  0  0  0  0
   -0.5244   -2.8090   -0.2932 C   0  0  0  0  0  0  0  0  0  0  0  0
   -0.3509   -3.3779   -1.5411 C   0  0  0  0  0  0  0  0  0  0  0  0
   -0.0742   -4.7277   -1.6528 C   0  0  0  0  0  0  0  0  0  0  0  0
   -0.8213   -1.3365   -0.1712 C   0  0  0  0  0  0  0  0  0  0  0  0
    0.4391   -0.5905   -0.0585 N   0  3  1  0  0  0  0  0  0  0  0  0
    0.2073    0.8559   -0.1758 C   0  0  0  0  0  0  0  0  0  0  0  0
    1.5496    1.5900   -0.1332 C   0  0  0  0  0  0  0  0  0  0  0  0
    2.2401    1.2705    1.1240 N   0  0  0  0  0  0  0  0  0  0  0  0
    2.4719   -0.1759    1.2413 C   0  0  0  0  0  0  0  0  0  0  0  0
    1.1297   -0.9101    1.1987 C   0  0  0  0  0  0  0  0  0  0  0  0
    3.5006    2.0165    1.2367 C   0  0  1  0  0  0  0  0  0  0  0  0
    4.1570    1.7052    0.4107 H   0  0  0  0  0  0  0  0  0  0  0  0
    3.2193    3.4943    1.1476 C   0  0  0  0  0  0  0  0  0  0  0  0
    2.1519    4.0376    1.8378 C   0  0  0  0  0  0  0  0  0  0  0  0
    1.8965    5.3939    1.7596 C   0  0  0  0  0  0  0  0  0  0  0  0
    2.7031    6.2055    0.9839 C   0  0  0  0  0  0  0  0  0  0  0  0
    3.7674    5.6614    0.2896 C   0  0  0  0  0  0  0  0  0  0  0  0
    4.0253    4.3058    0.3713 C   0  0  0  0  0  0  0  0  0  0  0  0
    4.1504    1.7077    2.5609 C   0  0  0  0  0  0  0  0  0  0  0  0
    3.3919    1.6954    3.7165 C   0  0  0  0  0  0  0  0  0  0  0  0
    3.9862    1.4067    4.9305 C   0  0  0  0  0  0  0  0  0  0  0  0
    5.3427    1.1412    4.9905 C   0  0  0  0  0  0  0  0  0  0  0  0
    6.1024    1.1593    3.8343 C   0  0  0  0  0  0  0  0  0  0  0  0
    5.5058    1.4425    2.6202 C   0  0  0  0  0  0  0  0  0  0  0  0
    6.0914    0.7861    6.5160 Cl  0  0  0  0  0  0  0  0  0  0  0  0
   -0.9409   -7.5217    1.0344 H   0  0  0  0  0  0  0  0  0  0  0  0
   -0.6156   -8.8619   -0.1167 H   0  0  0  0  0  0  0  0  0  0  0  0
   -1.7663   -7.5559   -0.5607 H   0  0  0  0  0  0  0  0  0  0  0  0
    1.2937   -6.7735   -2.5561 H   0  0  0  0  0  0  0  0  0  0  0  0
   -0.4663   -7.1206   -2.6495 H   0  0  0  0  0  0  0  0  0  0  0  0
    0.6844   -8.4266   -2.2055 H   0  0  0  0  0  0  0  0  0  0  0  0
    2.4415   -6.7259   -0.3376 H   0  0  0  0  0  0  0  0  0  0  0  0
    1.8323   -8.3790    0.0132 H   0  0  0  0  0  0  0  0  0  0  0  0
    1.5069   -7.0388    1.1642 H   0  0  0  0  0  0  0  0  0  0  0  0
   -0.0855   -5.5538    1.6176 H   0  0  0  0  0  0  0  0  0  0  0  0
   -0.5707   -3.1480    1.8170 H   0  0  0  0  0  0  0  0  0  0  0  0
   -0.4281   -2.7672   -2.4285 H   0  0  0  0  0  0  0  0  0  0  0  0
    0.0654   -5.1714   -2.6275 H   0  0  0  0  0  0  0  0  0  0  0  0
   -1.3693   -0.9979   -1.0628 H   0  0  0  0  0  0  0  0  0  0  0  0
   -1.4338   -1.1590    0.7251 H   0  0  0  0  0  0  0  0  0  0  0  0
   -0.2988    1.0700   -1.1287 H   0  0  0  0  0  0  0  0  0  0  0  0
   -0.4239    1.1950    0.6589 H   0  0  0  0  0  0  0  0  0  0  0  0
    2.1692    1.2709   -0.9843 H   0  0  0  0  0  0  0  0  0  0  0  0
    1.3764    2.6747   -0.1921 H   0  0  0  0  0  0  0  0  0  0  0  0
    3.1031   -0.5150    0.4066 H   0  0  0  0  0  0  0  0  0  0  0  0
    2.9780   -0.3901    2.1942 H   0  0  0  0  0  0  0  0  0  0  0  0
    0.5092   -0.5914    2.0492 H   0  0  0  0  0  0  0  0  0  0  0  0
    1.3021   -1.9950    1.2568 H   0  0  0  0  0  0  0  0  0  0  0  0
    1.5194    3.4029    2.4408 H   0  0  0  0  0  0  0  0  0  0  0  0
    1.0652    5.8191    2.3023 H   0  0  0  0  0  0  0  0  0  0  0  0
    2.5020    7.2647    0.9207 H   0  0  0  0  0  0  0  0  0  0  0  0
    4.3976    6.2955   -0.3164 H   0  0  0  0  0  0  0  0  0  0  0  0
    4.8569    3.8807   -0.1712 H   0  0  0  0  0  0  0  0  0  0  0  0
    2.3338    1.9070    3.6702 H   0  0  0  0  0  0  0  0  0  0  0  0
    3.3927    1.3928    5.8327 H   0  0  0  0  0  0  0  0  0  0  0  0
    7.1614    0.9524    3.8806 H   0  0  0  0  0  0  0  0  0  0  0  0
    6.0988    1.4570    1.7176 H   0  0  0  0  0  0  0  0  0  0  0  0
    1.0887   -0.8991   -0.8909 H   0  0  0  0  0  0  0  0  0  0  0  0
  1  2  1  0  0  0  0
  1 33  1  0  0  0  0
  1 34  1  0  0  0  0
  1 35  1  0  0  0  0
  2  3  1  0  0  0  0
  2  4  1  0  0  0  0
  2  5  1  0  0  0  0
  3 36  1  0  0  0  0
  3 37  1  0  0  0  0
  3 38  1  0  0  0  0
  4 39  1  0  0  0  0
  4 40  1  0  0  0  0
  4 41  1  0  0  0  0
  5 10  2  0  0  0  0
  5  6  1  0  0  0  0
  6  7  2  0  0  0  0
  6 42  1  0  0  0  0
  7  8  1  0  0  0  0
  7 43  1  0  0  0  0
  8  9  2  0  0  0  0
  8 11  1  0  0  0  0
  9 10  1  0  0  0  0
  9 44  1  0  0  0  0
 10 45  1  0  0  0  0
 11 12  1  0  0  0  0
 11 46  1  0  0  0  0
 11 47  1  0  0  0  0
 12 17  1  0  0  0  0
 12 13  1  0  0  0  0
 12 65  1  6  0  0  0
 13 14  1  0  0  0  0
 13 48  1  0  0  0  0
 13 49  1  0  0  0  0
 14 15  1  0  0  0  0
 14 50  1  0  0  0  0
 14 51  1  0  0  0  0
 15 16  1  0  0  0  0
 15 18  1  0  0  0  0
 16 17  1  0  0  0  0
 16 52  1  0  0  0  0
 16 53  1  0  0  0  0
 17 54  1  0  0  0  0
 17 55  1  0  0  0  0
 18 19  1  6  0  0  0
 18 20  1  0  0  0  0
 18 26  1  0  0  0  0
 20 25  2  0  0  0  0
 20 21  1  0  0  0  0
 21 22  2  0  0  0  0
 21 56  1  0  0  0  0
 22 23  1  0  0  0  0
 22 57  1  0  0  0  0
 23 24  2  0  0  0  0
 23 58  1  0  0  0  0
 24 25  1  0  0  0  0
 24 59  1  0  0  0  0
 25 60  1  0  0  0  0
 26 31  2  0  0  0  0
 26 27  1  0  0  0  0
 27 28  2  0  0  0  0
 27 61  1  0  0  0  0
 28 29  1  0  0  0  0
 28 62  1  0  0  0  0
 29 30  2  0  0  0  0
 29 32  1  0  0  0  0
 30 31  1  0  0  0  0
 30 63  1  0  0  0  0
 31 64  1  0  0  0  0
M  CHG  1  12   1
M  END
$$$$
