ZINC03782599
 OpenBabel08292219463D

 63 66  0  0  1  0  0  0  0  0999 V2000
    0.1611    1.5762    0.0269 C   0  0  0  0  0  0  0  0  0  0  0  0
    0.0931    0.0477    0.0325 C   0  0  2  0  0  0  0  0  0  0  0  0
   -1.3313   -0.4004    0.2938 C   0  0  0  0  0  0  0  0  0  0  0  0
   -1.7878    0.2661    1.6027 C   0  0  0  0  0  0  0  0  0  0  0  0
   -0.8623   -0.0918    2.7601 C   0  0  1  0  0  0  0  0  0  0  0  0
   -0.9324   -1.1624    2.9522 H   0  0  0  0  0  0  0  0  0  0  0  0
    0.6001    0.2648    2.4436 C   0  0  2  0  0  0  0  0  0  0  0  0
    0.6869    1.3376    2.2713 H   0  0  0  0  0  0  0  0  0  0  0  0
    0.9758   -0.5123    1.1810 C   0  0  2  0  0  0  0  0  0  0  0  0
    0.7937   -1.5782    1.3175 H   0  0  0  0  0  0  0  0  0  0  0  0
    2.3865   -0.2593    0.6380 C   0  0  0  0  0  0  0  0  0  0  0  0
    2.2587   -0.6506   -0.8596 C   0  0  0  0  0  0  0  0  0  0  0  0
    0.7603   -0.5021   -1.2236 C   0  0  2  0  0  0  0  0  0  0  0  0
    0.3366   -1.4724   -1.4826 H   0  0  0  0  0  0  0  0  0  0  0  0
    0.5943    0.4637   -2.3685 C   0  0  0  0  0  0  0  0  0  0  0  0
    1.4311    1.3190   -2.5666 O   0  0  0  0  0  0  0  0  0  0  0  0
   -0.4841    0.3771   -3.1722 N   0  0  0  0  0  0  0  0  0  0  0  0
   -0.6455    1.3160   -4.2852 C   0  0  0  0  0  0  0  0  0  0  0  0
    0.5406    1.1812   -5.2422 C   0  0  0  0  0  0  0  0  0  0  0  0
   -1.9426    1.0020   -5.0333 C   0  0  0  0  0  0  0  0  0  0  0  0
   -0.7029    2.7453   -3.7424 C   0  0  0  0  0  0  0  0  0  0  0  0
    1.4910   -0.1409    3.6173 C   0  0  0  0  0  0  0  0  0  0  0  0
    1.0452    0.5929    4.8861 C   0  0  0  0  0  0  0  0  0  0  0  0
   -0.4081    0.2320    5.1868 C   0  0  2  0  0  0  0  0  0  0  0  0
   -0.4905   -0.8471    5.3165 H   0  0  0  0  0  0  0  0  0  0  0  0
   -1.2751    0.6663    4.0195 C   0  0  2  0  0  0  0  0  0  0  0  0
   -2.7176    0.4002    4.3570 C   0  0  0  0  0  0  0  0  0  0  0  0
   -3.1281    0.5935    5.6129 C   0  0  0  0  0  0  0  0  0  0  0  0
   -2.1595    1.0710    6.6166 C   0  0  0  0  0  0  0  0  0  0  0  0
   -2.5462    1.6436    7.6175 O   0  0  0  0  0  0  0  0  0  0  0  0
   -0.8742    0.8996    6.4004 N   0  0  0  0  0  0  0  0  0  0  0  0
   -1.0875    2.1676    3.7915 C   0  0  0  0  0  0  0  0  0  0  0  0
    1.1969    1.8934   -0.0944 H   0  0  0  0  0  0  0  0  0  0  0  0
   -0.4365    1.9634   -0.7984 H   0  0  0  0  0  0  0  0  0  0  0  0
   -0.2286    1.9606    0.9694 H   0  0  0  0  0  0  0  0  0  0  0  0
   -1.9757   -0.0854   -0.5270 H   0  0  0  0  0  0  0  0  0  0  0  0
   -1.3657   -1.4848    0.3982 H   0  0  0  0  0  0  0  0  0  0  0  0
   -1.7910    1.3480    1.4699 H   0  0  0  0  0  0  0  0  0  0  0  0
   -2.7988   -0.0662    1.8385 H   0  0  0  0  0  0  0  0  0  0  0  0
    2.6562    0.7918    0.7403 H   0  0  0  0  0  0  0  0  0  0  0  0
    3.1136   -0.8959    1.1422 H   0  0  0  0  0  0  0  0  0  0  0  0
    2.8610    0.0187   -1.4739 H   0  0  0  0  0  0  0  0  0  0  0  0
    2.5786   -1.6823   -1.0054 H   0  0  0  0  0  0  0  0  0  0  0  0
   -1.1533   -0.3069   -3.0138 H   0  0  0  0  0  0  0  0  0  0  0  0
    0.5816    0.1629   -5.6289 H   0  0  0  0  0  0  0  0  0  0  0  0
    0.4206    1.8798   -6.0703 H   0  0  0  0  0  0  0  0  0  0  0  0
    1.4648    1.4049   -4.7093 H   0  0  0  0  0  0  0  0  0  0  0  0
   -2.7876    1.0981   -4.3515 H   0  0  0  0  0  0  0  0  0  0  0  0
   -2.0627    1.7006   -5.8613 H   0  0  0  0  0  0  0  0  0  0  0  0
   -1.9017   -0.0162   -5.4200 H   0  0  0  0  0  0  0  0  0  0  0  0
    0.2212    2.9690   -3.2094 H   0  0  0  0  0  0  0  0  0  0  0  0
   -0.8230    3.4439   -4.5704 H   0  0  0  0  0  0  0  0  0  0  0  0
   -1.5479    2.8413   -3.0606 H   0  0  0  0  0  0  0  0  0  0  0  0
    1.4146   -1.2167    3.7752 H   0  0  0  0  0  0  0  0  0  0  0  0
    2.5257    0.1186    3.3934 H   0  0  0  0  0  0  0  0  0  0  0  0
    1.6761    0.2915    5.7222 H   0  0  0  0  0  0  0  0  0  0  0  0
    1.1295    1.6689    4.7336 H   0  0  0  0  0  0  0  0  0  0  0  0
   -3.4069    0.0593    3.5986 H   0  0  0  0  0  0  0  0  0  0  0  0
   -4.1547    0.4031    5.8893 H   0  0  0  0  0  0  0  0  0  0  0  0
   -0.2383    1.2035    7.0669 H   0  0  0  0  0  0  0  0  0  0  0  0
   -1.7067    2.4880    2.9536 H   0  0  0  0  0  0  0  0  0  0  0  0
   -1.3817    2.7110    4.6894 H   0  0  0  0  0  0  0  0  0  0  0  0
   -0.0405    2.3732    3.5690 H   0  0  0  0  0  0  0  0  0  0  0  0
  1 33  1  0  0  0  0
  1 34  1  0  0  0  0
  1 35  1  0  0  0  0
  2  1  1  6  0  0  0
  2  9  1  0  0  0  0
  2 13  1  0  0  0  0
  2  3  1  0  0  0  0
  3  4  1  0  0  0  0
  3 36  1  0  0  0  0
  3 37  1  0  0  0  0
  4  5  1  0  0  0  0
  4 38  1  0  0  0  0
  4 39  1  0  0  0  0
  5  6  1  1  0  0  0
  5 26  1  0  0  0  0
  5  7  1  0  0  0  0
  7  8  1  6  0  0  0
  7  9  1  0  0  0  0
  7 22  1  0  0  0  0
  9 10  1  1  0  0  0
  9 11  1  0  0  0  0
 11 12  1  0  0  0  0
 11 40  1  0  0  0  0
 11 41  1  0  0  0  0
 12 13  1  0  0  0  0
 12 42  1  0  0  0  0
 12 43  1  0  0  0  0
 13 14  1  6  0  0  0
 13 15  1  0  0  0  0
 15 16  2  0  0  0  0
 15 17  1  0  0  0  0
 17 18  1  0  0  0  0
 17 44  1  0  0  0  0
 18 19  1  0  0  0  0
 18 20  1  0  0  0  0
 18 21  1  0  0  0  0
 19 45  1  0  0  0  0
 19 46  1  0  0  0  0
 19 47  1  0  0  0  0
 20 48  1  0  0  0  0
 20 49  1  0  0  0  0
 20 50  1  0  0  0  0
 21 51  1  0  0  0  0
 21 52  1  0  0  0  0
 21 53  1  0  0  0  0
 22 23  1  0  0  0  0
 22 54  1  0  0  0  0
 22 55  1  0  0  0  0
 23 24  1  0  0  0  0
 23 56  1  0  0  0  0
 23 57  1  0  0  0  0
 24 25  1  1  0  0  0
 24 31  1  0  0  0  0
 24 26  1  0  0  0  0
 26 27  1  0  0  0  0
 26 32  1  6  0  0  0
 27 28  2  0  0  0  0
 27 58  1  0  0  0  0
 28 29  1  0  0  0  0
 28 59  1  0  0  0  0
 29 30  2  0  0  0  0
 29 31  1  0  0  0  0
 31 60  1  0  0  0  0
 32 61  1  0  0  0  0
 32 62  1  0  0  0  0
 32 63  1  0  0  0  0
M  END
$$$$
