ZINC03881556
 OpenBabel08292219463D

 58 61  0  0  1  0  0  0  0  0999 V2000
   -0.0187    1.5258    0.0104 C   0  0  0  0  0  0  0  0  0  0  0  0
    0.0021   -0.0041    0.0020 C   0  0  0  0  0  0  0  0  0  0  0  0
    0.7421   -0.5109    1.2415 C   0  0  0  0  0  0  0  0  0  0  0  0
    0.7628   -2.0407    1.2331 C   0  0  0  0  0  0  0  0  0  0  0  0
    1.4917   -2.5400    2.4540 C   0  0  0  0  0  0  0  0  0  0  0  0
    1.9478   -1.7529    3.2493 O   0  0  0  0  0  0  0  0  0  0  0  0
    1.6342   -3.8590    2.6580 O   0  0  0  0  0  0  0  0  0  0  0  0
    2.3361   -4.2611    3.8360 C   0  0  1  0  0  0  0  0  0  0  0  0
    3.0714   -3.5086    4.1210 H   0  0  0  0  0  0  0  0  0  0  0  0
    1.3451   -4.5305    5.0014 C   0  0  0  0  0  0  0  0  0  0  0  0
    1.9008   -5.7527    5.7746 C   0  0  0  0  0  0  0  0  0  0  0  0
    3.2246   -6.0895    5.0977 C   0  0  2  0  0  0  0  0  0  0  0  0
    4.0292   -5.5103    5.5509 H   0  0  0  0  0  0  0  0  0  0  0  0
    3.0066   -5.6231    3.6292 C   0  0  2  0  0  0  0  0  0  0  0  0
    4.3578   -5.6032    2.9419 C   0  0  0  0  0  0  0  0  0  0  0  0
    4.8869   -7.0497    2.9097 C   0  0  0  0  0  0  0  0  0  0  0  0
    4.9723   -7.6222    4.3168 C   0  0  1  0  0  0  0  0  0  0  0  0
    5.6828   -7.0185    4.8815 H   0  0  0  0  0  0  0  0  0  0  0  0
    3.6127   -7.5508    5.0432 C   0  0  1  0  0  0  0  0  0  0  0  0
    2.8641   -8.1097    4.4816 H   0  0  0  0  0  0  0  0  0  0  0  0
    3.7898   -8.1473    6.4396 C   0  0  0  0  0  0  0  0  0  0  0  0
    3.9900   -9.6552    6.2922 C   0  0  0  0  0  0  0  0  0  0  0  0
    5.0299   -9.9694    5.2490 C   0  0  0  0  0  0  0  0  0  0  0  0
    5.4676   -9.0387    4.3193 C   0  0  0  0  0  0  0  0  0  0  0  0
    6.4127   -9.4068    3.3719 C   0  0  0  0  0  0  0  0  0  0  0  0
    6.9081  -10.6933    3.3371 C   0  0  0  0  0  0  0  0  0  0  0  0
    6.4586  -11.6282    4.2578 C   0  0  0  0  0  0  0  0  0  0  0  0
    5.5469  -11.2571    5.2234 C   0  0  0  0  0  0  0  0  0  0  0  0
    6.9432  -12.8976    4.2345 O   0  0  0  0  0  0  0  0  0  0  0  0
    2.0471   -6.5767    2.9145 C   0  0  0  0  0  0  0  0  0  0  0  0
    1.0039    1.9031    0.0027 H   0  0  0  0  0  0  0  0  0  0  0  0
   -0.5459    1.8868   -0.8726 H   0  0  0  0  0  0  0  0  0  0  0  0
   -0.5289    1.8773    0.9072 H   0  0  0  0  0  0  0  0  0  0  0  0
   -1.0205   -0.3814    0.0098 H   0  0  0  0  0  0  0  0  0  0  0  0
    0.5123   -0.3556   -0.8948 H   0  0  0  0  0  0  0  0  0  0  0  0
    1.7647   -0.1336    1.2338 H   0  0  0  0  0  0  0  0  0  0  0  0
    0.2319   -0.1594    2.1383 H   0  0  0  0  0  0  0  0  0  0  0  0
   -0.2598   -2.4180    1.2409 H   0  0  0  0  0  0  0  0  0  0  0  0
    1.2730   -2.3923    0.3363 H   0  0  0  0  0  0  0  0  0  0  0  0
    1.2962   -3.6626    5.6589 H   0  0  0  0  0  0  0  0  0  0  0  0
    0.3550   -4.7568    4.6056 H   0  0  0  0  0  0  0  0  0  0  0  0
    2.0663   -5.4946    6.8206 H   0  0  0  0  0  0  0  0  0  0  0  0
    1.2120   -6.5940    5.6968 H   0  0  0  0  0  0  0  0  0  0  0  0
    4.2497   -5.2264    1.9248 H   0  0  0  0  0  0  0  0  0  0  0  0
    5.0472   -4.9698    3.5002 H   0  0  0  0  0  0  0  0  0  0  0  0
    4.2143   -7.6648    2.3119 H   0  0  0  0  0  0  0  0  0  0  0  0
    5.8786   -7.0593    2.4573 H   0  0  0  0  0  0  0  0  0  0  0  0
    4.6627   -7.7056    6.9202 H   0  0  0  0  0  0  0  0  0  0  0  0
    2.9007   -7.9511    7.0388 H   0  0  0  0  0  0  0  0  0  0  0  0
    4.3085  -10.0682    7.2493 H   0  0  0  0  0  0  0  0  0  0  0  0
    3.0446  -10.1143    6.0033 H   0  0  0  0  0  0  0  0  0  0  0  0
    6.7632   -8.6790    2.6550 H   0  0  0  0  0  0  0  0  0  0  0  0
    7.6427  -10.9717    2.5959 H   0  0  0  0  0  0  0  0  0  0  0  0
    5.2023  -11.9861    5.9419 H   0  0  0  0  0  0  0  0  0  0  0  0
    7.7288  -13.0288    4.7828 H   0  0  0  0  0  0  0  0  0  0  0  0
    1.7963   -6.1724    1.9338 H   0  0  0  0  0  0  0  0  0  0  0  0
    2.5236   -7.5498    2.7953 H   0  0  0  0  0  0  0  0  0  0  0  0
    1.1377   -6.6874    3.5052 H   0  0  0  0  0  0  0  0  0  0  0  0
  1  2  1  0  0  0  0
  1 31  1  0  0  0  0
  1 32  1  0  0  0  0
  1 33  1  0  0  0  0
  2  3  1  0  0  0  0
  2 34  1  0  0  0  0
  2 35  1  0  0  0  0
  3  4  1  0  0  0  0
  3 36  1  0  0  0  0
  3 37  1  0  0  0  0
  4  5  1  0  0  0  0
  4 38  1  0  0  0  0
  4 39  1  0  0  0  0
  5  6  2  0  0  0  0
  5  7  1  0  0  0  0
  7  8  1  0  0  0  0
  8  9  1  1  0  0  0
  8 14  1  0  0  0  0
  8 10  1  0  0  0  0
 10 11  1  0  0  0  0
 10 40  1  0  0  0  0
 10 41  1  0  0  0  0
 11 12  1  0  0  0  0
 11 42  1  0  0  0  0
 11 43  1  0  0  0  0
 12 13  1  1  0  0  0
 12 19  1  0  0  0  0
 12 14  1  0  0  0  0
 14 15  1  0  0  0  0
 14 30  1  6  0  0  0
 15 16  1  0  0  0  0
 15 44  1  0  0  0  0
 15 45  1  0  0  0  0
 16 17  1  0  0  0  0
 16 46  1  0  0  0  0
 16 47  1  0  0  0  0
 17 18  1  1  0  0  0
 17 24  1  0  0  0  0
 17 19  1  0  0  0  0
 19 20  1  6  0  0  0
 19 21  1  0  0  0  0
 21 22  1  0  0  0  0
 21 48  1  0  0  0  0
 21 49  1  0  0  0  0
 22 23  1  0  0  0  0
 22 50  1  0  0  0  0
 22 51  1  0  0  0  0
 23 28  2  0  0  0  0
 23 24  1  0  0  0  0
 24 25  2  0  0  0  0
 25 26  1  0  0  0  0
 25 52  1  0  0  0  0
 26 27  2  0  0  0  0
 26 53  1  0  0  0  0
 27 28  1  0  0  0  0
 27 29  1  0  0  0  0
 28 54  1  0  0  0  0
 29 55  1  0  0  0  0
 30 56  1  0  0  0  0
 30 57  1  0  0  0  0
 30 58  1  0  0  0  0
M  END
$$$$
