ZINC35342789
 OpenBabel08292219463D

 31 32  0  0  0  0  0  0  0  0999 V2000
   -0.1105    1.5007    0.0188 C   0  0  0  0  0  0  0  0  0  0  0  0
   -0.0659   -0.0056    0.0083 C   0  0  0  0  0  0  0  0  0  0  0  0
   -0.3009   -0.6933   -1.1693 C   0  0  0  0  0  0  0  0  0  0  0  0
   -0.2617   -2.0719   -1.1862 C   0  0  0  0  0  0  0  0  0  0  0  0
    0.0164   -2.7737   -0.0111 C   0  0  0  0  0  0  0  0  0  0  0  0
    0.2531   -2.0732    1.1737 C   0  0  0  0  0  0  0  0  0  0  0  0
    0.2154   -0.6944    1.1751 C   0  0  0  0  0  0  0  0  0  0  0  0
    0.0597   -4.2509   -0.0214 C   0  0  0  0  0  0  0  0  0  0  0  0
   -0.0102   -4.8539   -1.0749 O   0  0  0  0  0  0  0  0  0  0  0  0
    0.1875   -4.9937    1.2464 C   0  0  0  0  0  0  0  0  0  0  0  0
   -0.4132   -4.5029    2.4098 C   0  0  0  0  0  0  0  0  0  0  0  0
   -0.2931   -5.1982    3.5927 C   0  0  0  0  0  0  0  0  0  0  0  0
    0.4238   -6.3871    3.6335 C   0  0  0  0  0  0  0  0  0  0  0  0
    1.0259   -6.8822    2.4771 C   0  0  0  0  0  0  0  0  0  0  0  0
    0.9049   -6.1935    1.2865 C   0  0  0  0  0  0  0  0  0  0  0  0
    1.7279   -8.0462    2.5210 O   0  0  0  0  0  0  0  0  0  0  0  0
    0.5391   -7.0686    4.8022 O   0  0  0  0  0  0  0  0  0  0  0  0
   -0.9292   -4.6770    4.8234 N   0  0  0  0  0  4  0  0  0  0  0  0
   -1.5533   -3.6420    4.7895 O   0  0  0  0  0  0  0  0  0  0  0  0
   -0.8247   -5.2861    5.8624 O   0  5  0  0  0  0  0  0  0  0  0  0
    0.8814    1.8951   -0.2020 H   0  0  0  0  0  0  0  0  0  0  0  0
   -0.8160    1.8486   -0.7357 H   0  0  0  0  0  0  0  0  0  0  0  0
   -0.4290    1.8479    1.0017 H   0  0  0  0  0  0  0  0  0  0  0  0
   -0.5158   -0.1493   -2.0772 H   0  0  0  0  0  0  0  0  0  0  0  0
   -0.4459   -2.6075   -2.1058 H   0  0  0  0  0  0  0  0  0  0  0  0
    0.4687   -2.6097    2.0858 H   0  0  0  0  0  0  0  0  0  0  0  0
    0.4023   -0.1513    2.0897 H   0  0  0  0  0  0  0  0  0  0  0  0
   -0.9710   -3.5785    2.3810 H   0  0  0  0  0  0  0  0  0  0  0  0
    1.3669   -6.5781    0.3893 H   0  0  0  0  0  0  0  0  0  0  0  0
    1.1953   -8.8336    2.3438 H   0  0  0  0  0  0  0  0  0  0  0  0
   -0.1634   -7.7163    4.9507 H   0  0  0  0  0  0  0  0  0  0  0  0
  1  2  1  0  0  0  0
  1 21  1  0  0  0  0
  1 22  1  0  0  0  0
  1 23  1  0  0  0  0
  2  7  2  0  0  0  0
  2  3  1  0  0  0  0
  3  4  2  0  0  0  0
  3 24  1  0  0  0  0
  4  5  1  0  0  0  0
  4 25  1  0  0  0  0
  5  6  2  0  0  0  0
  5  8  1  0  0  0  0
  6  7  1  0  0  0  0
  6 26  1  0  0  0  0
  7 27  1  0  0  0  0
  8  9  2  0  0  0  0
  8 10  1  0  0  0  0
 10 15  2  0  0  0  0
 10 11  1  0  0  0  0
 11 12  2  0  0  0  0
 11 28  1  0  0  0  0
 12 13  1  0  0  0  0
 12 18  1  0  0  0  0
 13 14  2  0  0  0  0
 13 17  1  0  0  0  0
 14 15  1  0  0  0  0
 14 16  1  0  0  0  0
 15 29  1  0  0  0  0
 16 30  1  0  0  0  0
 17 31  1  0  0  0  0
 18 19  2  0  0  0  0
 18 20  1  0  0  0  0
M  CHG  1  20  -1
M  END
$$$$
