ZINC03875417
 OpenBabel08292219463D

 46 49  0  0  1  0  0  0  0  0999 V2000
   -0.0184    1.5028    0.0103 C   0  0  0  0  0  0  0  0  0  0  0  0
    0.0021   -0.0041    0.0020 C   0  0  0  0  0  0  0  0  0  0  0  0
   -1.0924   -0.8180    0.0026 C   0  0  0  0  0  0  0  0  0  0  0  0
   -0.5925   -2.2012   -0.0077 C   0  0  0  0  0  0  0  0  0  0  0  0
    0.7147   -2.1331   -0.0136 N   0  0  0  0  0  0  0  0  0  0  0  0
    1.0949   -0.7716   -0.0130 O   0  0  0  0  0  0  0  0  0  0  0  0
   -1.4126   -3.4367   -0.0109 C   0  0  0  0  0  0  0  0  0  0  0  0
   -2.8040   -3.3530   -0.0095 C   0  0  0  0  0  0  0  0  0  0  0  0
   -3.5621   -4.5058   -0.0124 C   0  0  0  0  0  0  0  0  0  0  0  0
   -2.9444   -5.7440   -0.0167 C   0  0  0  0  0  0  0  0  0  0  0  0
   -1.5647   -5.8344   -0.0177 C   0  0  0  0  0  0  0  0  0  0  0  0
   -0.7948   -4.6871   -0.0211 C   0  0  0  0  0  0  0  0  0  0  0  0
    0.9374   -4.8016   -0.0301 Cl  0  0  0  0  0  0  0  0  0  0  0  0
   -2.5027   -0.3936    0.0126 C   0  0  0  0  0  0  0  0  0  0  0  0
   -3.0906   -0.2123   -1.0366 O   0  0  0  0  0  0  0  0  0  0  0  0
   -3.1418   -0.2063    1.1843 N   0  0  0  0  0  0  0  0  0  0  0  0
   -4.5446    0.2158    1.1942 C   0  0  1  0  0  0  0  0  0  0  0  0
   -5.0757   -0.0700    0.2862 H   0  0  0  0  0  0  0  0  0  0  0  0
   -5.2824   -0.1672    2.4723 C   0  0  2  0  0  0  0  0  0  0  0  0
   -6.2849   -0.5781    2.3527 H   0  0  0  0  0  0  0  0  0  0  0  0
   -5.1685    1.2710    2.7943 N   0  0  0  0  0  0  0  0  0  0  0  0
   -4.7305    1.6664    1.5648 C   0  0  0  0  0  0  0  0  0  0  0  0
   -4.5621    2.7300    1.0068 O   0  0  0  0  0  0  0  0  0  0  0  0
   -4.3003    1.6051    3.9286 C   0  0  2  0  0  0  0  0  0  0  0  0
   -3.3021    1.8358    3.5564 H   0  0  0  0  0  0  0  0  0  0  0  0
   -4.2041    0.4333    4.9444 C   0  0  0  0  0  0  0  0  0  0  0  0
   -4.2334   -0.9925    3.7361 S   0  0  0  0  0  0  0  0  0  0  0  0
   -2.8932    0.4778    5.7321 C   0  0  0  0  0  0  0  0  0  0  0  0
   -5.4155    0.3974    5.8782 C   0  0  0  0  0  0  0  0  0  0  0  0
   -4.8545    2.8175    4.6314 C   0  0  0  0  0  0  0  0  0  0  0  0
   -5.9506    3.2531    4.3226 O   0  0  0  0  0  0  0  0  0  0  0  0
   -4.2069    3.3626    5.5088 O   0  0  0  0  0  1  0  0  0  0  0  0
    1.0042    1.8801    0.0026 H   0  0  0  0  0  0  0  0  0  0  0  0
   -0.5455    1.8639   -0.8728 H   0  0  0  0  0  0  0  0  0  0  0  0
   -0.5286    1.8543    0.9071 H   0  0  0  0  0  0  0  0  0  0  0  0
   -3.2877   -2.3874   -0.0058 H   0  0  0  0  0  0  0  0  0  0  0  0
   -4.6402   -4.4417   -0.0109 H   0  0  0  0  0  0  0  0  0  0  0  0
   -3.5423   -6.6433   -0.0190 H   0  0  0  0  0  0  0  0  0  0  0  0
   -1.0880   -6.8035   -0.0203 H   0  0  0  0  0  0  0  0  0  0  0  0
   -2.6729   -0.3509    2.0210 H   0  0  0  0  0  0  0  0  0  0  0  0
   -2.8319    1.4166    6.2827 H   0  0  0  0  0  0  0  0  0  0  0  0
   -2.8616   -0.3568    6.4325 H   0  0  0  0  0  0  0  0  0  0  0  0
   -2.0522    0.4055    5.0425 H   0  0  0  0  0  0  0  0  0  0  0  0
   -6.3241    0.2692    5.2899 H   0  0  0  0  0  0  0  0  0  0  0  0
   -5.3131   -0.4350    6.5745 H   0  0  0  0  0  0  0  0  0  0  0  0
   -5.4724    1.3324    6.4356 H   0  0  0  0  0  0  0  0  0  0  0  0
  1  2  1  0  0  0  0
  1 33  1  0  0  0  0
  1 34  1  0  0  0  0
  1 35  1  0  0  0  0
  2  6  1  0  0  0  0
  2  3  2  0  0  0  0
  3  4  1  0  0  0  0
  3 14  1  0  0  0  0
  4  5  2  0  0  0  0
  4  7  1  0  0  0  0
  5  6  1  0  0  0  0
  7 12  2  0  0  0  0
  7  8  1  0  0  0  0
  8  9  2  0  0  0  0
  8 36  1  0  0  0  0
  9 10  1  0  0  0  0
  9 37  1  0  0  0  0
 10 11  2  0  0  0  0
 10 38  1  0  0  0  0
 11 12  1  0  0  0  0
 11 39  1  0  0  0  0
 12 13  1  0  0  0  0
 14 15  2  0  0  0  0
 14 16  1  0  0  0  0
 16 17  1  0  0  0  0
 16 40  1  0  0  0  0
 17 18  1  6  0  0  0
 17 22  1  0  0  0  0
 17 19  1  0  0  0  0
 19 20  1  6  0  0  0
 19 27  1  0  0  0  0
 19 21  1  0  0  0  0
 21 22  1  0  0  0  0
 21 24  1  0  0  0  0
 22 23  2  0  0  0  0
 24 25  1  6  0  0  0
 24 26  1  0  0  0  0
 24 30  1  0  0  0  0
 26 27  1  0  0  0  0
 26 28  1  0  0  0  0
 26 29  1  0  0  0  0
 28 41  1  0  0  0  0
 28 42  1  0  0  0  0
 28 43  1  0  0  0  0
 29 44  1  0  0  0  0
 29 45  1  0  0  0  0
 29 46  1  0  0  0  0
 30 31  2  0  0  0  0
 30 32  1  0  0  0  0
M  END
$$$$
