ZINC00004351
 OpenBabel08292219463D

 42 45  0  0  1  0  0  0  0  0999 V2000
   -0.0178    1.4648    0.0101 C   0  0  0  0  0  0  0  0  0  0  0  0
    0.0021   -0.0041    0.0020 N   0  3  1  0  0  0  0  0  0  0  0  0
    0.6740   -0.4746   -1.2151 C   0  0  0  0  0  0  0  0  0  0  0  0
    0.5450   -1.9989   -1.3133 C   0  0  0  0  0  0  0  0  0  0  0  0
    1.0748   -2.6020   -0.0289 C   0  0  0  0  0  0  0  0  0  0  0  0
    1.9457   -3.6213   -0.0482 C   0  0  0  0  0  0  0  0  0  0  0  0
    2.4714   -4.2296    1.2045 C   0  0  0  0  0  0  0  0  0  0  0  0
    1.6308   -4.9026    2.0827 C   0  0  0  0  0  0  0  0  0  0  0  0
    2.1551   -5.4724    3.2269 C   0  0  0  0  0  0  0  0  0  0  0  0
    3.5089   -5.3754    3.4950 C   0  0  0  0  0  0  0  0  0  0  0  0
    4.3486   -4.6996    2.6262 C   0  0  0  0  0  0  0  0  0  0  0  0
    3.8347   -4.1191    1.4882 C   0  0  0  0  0  0  0  0  0  0  0  0
    4.7162   -3.3339    0.5488 C   0  0  0  0  0  0  0  0  0  0  0  0
    4.8991   -4.1015   -0.7375 C   0  0  0  0  0  0  0  0  0  0  0  0
    6.0124   -4.4665   -1.0595 O   0  0  0  0  0  0  0  0  0  0  0  0
    3.8196   -4.3991   -1.5624 C   0  0  0  0  0  0  0  0  0  0  0  0
    2.4396   -4.2161   -1.3325 C   0  0  0  0  0  0  0  0  0  0  0  0
    1.6254   -4.6279   -2.3801 C   0  0  0  0  0  0  0  0  0  0  0  0
    2.1848   -5.1704   -3.4853 C   0  0  0  0  0  0  0  0  0  0  0  0
    3.8482   -5.1428   -3.1740 S   0  0  0  0  0  0  0  0  0  0  0  0
    0.5864   -2.0126    1.2782 C   0  0  0  0  0  0  0  0  0  0  0  0
    0.7124   -0.4873    1.1920 C   0  0  0  0  0  0  0  0  0  0  0  0
    1.0047    1.8421    0.0024 H   0  0  0  0  0  0  0  0  0  0  0  0
   -0.5450    1.8259   -0.8730 H   0  0  0  0  0  0  0  0  0  0  0  0
   -0.5280    1.8163    0.9069 H   0  0  0  0  0  0  0  0  0  0  0  0
    0.2103   -0.0138   -2.0873 H   0  0  0  0  0  0  0  0  0  0  0  0
    1.7283   -0.2009   -1.1770 H   0  0  0  0  0  0  0  0  0  0  0  0
   -0.5023   -2.2718   -1.4432 H   0  0  0  0  0  0  0  0  0  0  0  0
    1.1283   -2.3636   -2.1588 H   0  0  0  0  0  0  0  0  0  0  0  0
    0.5743   -4.9796    1.8723 H   0  0  0  0  0  0  0  0  0  0  0  0
    1.5063   -5.9953    3.9139 H   0  0  0  0  0  0  0  0  0  0  0  0
    3.9131   -5.8293    4.3878 H   0  0  0  0  0  0  0  0  0  0  0  0
    5.4046   -4.6277    2.8407 H   0  0  0  0  0  0  0  0  0  0  0  0
    4.2511   -2.3718    0.3341 H   0  0  0  0  0  0  0  0  0  0  0  0
    5.6879   -3.1704    1.0149 H   0  0  0  0  0  0  0  0  0  0  0  0
    0.5533   -4.5159   -2.3122 H   0  0  0  0  0  0  0  0  0  0  0  0
    1.6823   -5.5336   -4.3695 H   0  0  0  0  0  0  0  0  0  0  0  0
   -0.4562   -2.2871    1.4386 H   0  0  0  0  0  0  0  0  0  0  0  0
    1.1963   -2.3861    2.1007 H   0  0  0  0  0  0  0  0  0  0  0  0
    1.7651   -0.2131    1.1231 H   0  0  0  0  0  0  0  0  0  0  0  0
    0.2770   -0.0359    2.0834 H   0  0  0  0  0  0  0  0  0  0  0  0
   -0.9452   -0.3513    0.0141 H   0  0  0  0  0  0  0  0  0  0  0  0
  1  2  1  0  0  0  0
  1 23  1  0  0  0  0
  1 24  1  0  0  0  0
  1 25  1  0  0  0  0
  2 22  1  0  0  0  0
  2  3  1  0  0  0  0
  2 42  1  1  0  0  0
  3  4  1  0  0  0  0
  3 26  1  0  0  0  0
  3 27  1  0  0  0  0
  4  5  1  0  0  0  0
  4 28  1  0  0  0  0
  4 29  1  0  0  0  0
  5  6  2  0  0  0  0
  5 21  1  0  0  0  0
  6 17  1  0  0  0  0
  6  7  1  0  0  0  0
  7 12  2  0  0  0  0
  7  8  1  0  0  0  0
  8  9  2  0  0  0  0
  8 30  1  0  0  0  0
  9 10  1  0  0  0  0
  9 31  1  0  0  0  0
 10 11  2  0  0  0  0
 10 32  1  0  0  0  0
 11 12  1  0  0  0  0
 11 33  1  0  0  0  0
 12 13  1  0  0  0  0
 13 14  1  0  0  0  0
 13 34  1  0  0  0  0
 13 35  1  0  0  0  0
 14 15  2  0  0  0  0
 14 16  1  0  0  0  0
 16 20  1  0  0  0  0
 16 17  2  0  0  0  0
 17 18  1  0  0  0  0
 18 19  2  0  0  0  0
 18 36  1  0  0  0  0
 19 20  1  0  0  0  0
 19 37  1  0  0  0  0
 21 22  1  0  0  0  0
 21 38  1  0  0  0  0
 21 39  1  0  0  0  0
 22 40  1  0  0  0  0
 22 41  1  0  0  0  0
M  CHG  1   2   1
M  END
$$$$
