ZINC01542113
 OpenBabel08292219463D

 61 65  0  0  1  0  0  0  0  0999 V2000
   -0.6908   -1.8418   -9.9564 C   0  0  0  0  0  0  0  0  0  0  0  0
    0.2910   -0.9109  -10.1276 C   0  0  0  0  0  0  0  0  0  0  0  0
    0.4306    0.1367   -9.2201 C   0  0  0  0  0  0  0  0  0  0  0  0
   -0.4445    0.2270   -8.1198 C   0  0  0  0  0  0  0  0  0  0  0  0
   -1.4499   -0.7217   -7.9498 C   0  0  0  0  0  0  0  0  0  0  0  0
   -1.5715   -1.7604   -8.8687 C   0  0  0  0  0  0  0  0  0  0  0  0
   -2.5971   -2.7459   -8.7030 C   0  0  0  0  0  0  0  0  0  0  0  0
   -3.4107   -3.5277   -8.5716 N   0  0  0  0  0  0  0  0  0  0  0  0
   -0.0376    1.4225   -7.3759 C   0  0  0  0  0  0  0  0  0  0  0  0
    1.0082    1.9522   -8.0291 C   0  0  0  0  0  0  0  0  0  0  0  0
    1.3011    1.1974   -9.1324 N   0  0  0  0  0  0  0  0  0  0  0  0
    2.0171    1.3832   -9.7598 H   0  0  0  0  0  0  0  0  0  0  0  0
   -0.6691    1.9522   -6.1143 C   0  0  0  0  0  0  0  0  0  0  0  0
   -0.0683    1.2355   -4.9034 C   0  0  0  0  0  0  0  0  0  0  0  0
   -0.7095    1.7734   -3.6226 C   0  0  0  0  0  0  0  0  0  0  0  0
   -0.1087    1.0567   -2.4117 C   0  0  0  0  0  0  0  0  0  0  0  0
   -0.0127    1.0858    0.0080 C   0  0  0  0  0  0  0  0  0  0  0  0
   -0.7300    1.5798    1.2666 C   0  0  0  0  0  0  0  0  0  0  0  0
   -0.7832    3.0484    1.2523 N   0  0  0  0  0  0  0  0  0  0  0  0
   -1.4948    3.5356    0.0624 C   0  0  0  0  0  0  0  0  0  0  0  0
   -0.7771    3.0416   -1.1959 C   0  0  0  0  0  0  0  0  0  0  0  0
   -1.3696    3.5402    2.4236 C   0  0  0  0  0  0  0  0  0  0  0  0
   -2.4823    4.3771    2.3463 C   0  0  0  0  0  0  0  0  0  0  0  0
   -3.0715    4.8698    3.4890 C   0  0  0  0  0  0  0  0  0  0  0  0
   -2.5589    4.5359    4.7374 C   0  0  0  0  0  0  0  0  0  0  0  0
   -1.4363    3.6918    4.8192 C   0  0  0  0  0  0  0  0  0  0  0  0
   -0.8480    3.1911    3.6550 C   0  0  0  0  0  0  0  0  0  0  0  0
   -1.1565    3.5406    6.2468 C   0  0  0  0  0  0  0  0  0  0  0  0
   -2.0959    4.2771    6.8946 C   0  0  0  0  0  0  0  0  0  0  0  0
   -2.9174    4.8595    5.9964 O   0  0  0  0  0  0  0  0  0  0  0  0
   -2.2018    4.4184    8.3536 C   0  0  0  0  0  0  0  0  0  0  0  0
   -1.4080    3.8496    9.0791 O   0  0  0  0  0  0  0  0  0  0  0  0
   -3.1784    5.1782    8.8880 N   0  0  0  0  0  0  0  0  0  0  0  0
   -0.7910   -2.6497  -10.6661 H   0  0  0  0  0  0  0  0  0  0  0  0
    0.9625   -0.9859  -10.9702 H   0  0  0  0  0  0  0  0  0  0  0  0
   -2.1260   -0.6548   -7.1103 H   0  0  0  0  0  0  0  0  0  0  0  0
    1.5403    2.8426   -7.7283 H   0  0  0  0  0  0  0  0  0  0  0  0
   -1.7443    1.7758   -6.1444 H   0  0  0  0  0  0  0  0  0  0  0  0
   -0.4787    3.0225   -6.0344 H   0  0  0  0  0  0  0  0  0  0  0  0
    1.0069    1.4120   -4.8733 H   0  0  0  0  0  0  0  0  0  0  0  0
   -0.2587    0.1653   -4.9833 H   0  0  0  0  0  0  0  0  0  0  0  0
   -1.7847    1.5969   -3.6527 H   0  0  0  0  0  0  0  0  0  0  0  0
   -0.5191    2.8436   -3.5426 H   0  0  0  0  0  0  0  0  0  0  0  0
    0.9665    1.2331   -2.3816 H   0  0  0  0  0  0  0  0  0  0  0  0
   -0.2991   -0.0136   -2.4916 H   0  0  0  0  0  0  0  0  0  0  0  0
    0.0021   -0.0041    0.0020 H   0  0  0  0  0  0  0  0  0  0  0  0
    1.0098    1.4634    0.0003 H   0  0  0  0  0  0  0  0  0  0  0  0
   -1.7436    1.1797    1.2882 H   0  0  0  0  0  0  0  0  0  0  0  0
   -0.1871    1.2439    2.1500 H   0  0  0  0  0  0  0  0  0  0  0  0
   -1.5096    4.6255    0.0684 H   0  0  0  0  0  0  0  0  0  0  0  0
   -2.5172    3.1577    0.0699 H   0  0  0  0  0  0  0  0  0  0  0  0
    0.2366    3.4417   -1.2171 H   0  0  0  0  0  0  0  0  0  0  0  0
   -1.3193    3.3776   -2.0798 H   0  0  0  0  0  0  0  0  0  0  0  0
   -2.8860    4.6416    1.3801 H   0  0  0  0  0  0  0  0  0  0  0  0
   -3.9329    5.5171    3.4154 H   0  0  0  0  0  0  0  0  0  0  0  0
    0.0111    2.5395    3.7168 H   0  0  0  0  0  0  0  0  0  0  0  0
   -0.3635    2.9604    6.6952 H   0  0  0  0  0  0  0  0  0  0  0  0
   -3.8114    5.6317    8.3096 H   0  0  0  0  0  0  0  0  0  0  0  0
   -3.2483    5.2714    9.8509 H   0  0  0  0  0  0  0  0  0  0  0  0
   -0.7506    1.5637   -1.1801 N   0  3  1  0  0  0  0  0  0  0  0  0
   -1.7146    1.2130   -1.1376 H   0  0  0  0  0  0  0  0  0  0  0  0
  1  6  2  0  0  0  0
  1  2  1  0  0  0  0
  1 34  1  0  0  0  0
  2  3  2  0  0  0  0
  2 35  1  0  0  0  0
  3 11  1  0  0  0  0
  3  4  1  0  0  0  0
  4  5  2  0  0  0  0
  4  9  1  0  0  0  0
  5  6  1  0  0  0  0
  5 36  1  0  0  0  0
  6  7  1  0  0  0  0
  7  8  3  0  0  0  0
  9 10  2  0  0  0  0
  9 13  1  0  0  0  0
 10 11  1  0  0  0  0
 10 37  1  0  0  0  0
 11 12  1  0  0  0  0
 13 14  1  0  0  0  0
 13 38  1  0  0  0  0
 13 39  1  0  0  0  0
 14 15  1  0  0  0  0
 14 40  1  0  0  0  0
 14 41  1  0  0  0  0
 15 16  1  0  0  0  0
 15 42  1  0  0  0  0
 15 43  1  0  0  0  0
 16 44  1  0  0  0  0
 16 45  1  0  0  0  0
 16 60  1  0  0  0  0
 17 18  1  0  0  0  0
 17 46  1  0  0  0  0
 17 47  1  0  0  0  0
 17 60  1  0  0  0  0
 18 19  1  0  0  0  0
 18 48  1  0  0  0  0
 18 49  1  0  0  0  0
 19 20  1  0  0  0  0
 19 22  1  0  0  0  0
 20 21  1  0  0  0  0
 20 50  1  0  0  0  0
 20 51  1  0  0  0  0
 21 52  1  0  0  0  0
 21 53  1  0  0  0  0
 21 60  1  0  0  0  0
 22 27  2  0  0  0  0
 22 23  1  0  0  0  0
 23 24  2  0  0  0  0
 23 54  1  0  0  0  0
 24 25  1  0  0  0  0
 24 55  1  0  0  0  0
 25 30  1  0  0  0  0
 25 26  2  0  0  0  0
 26 27  1  0  0  0  0
 26 28  1  0  0  0  0
 27 56  1  0  0  0  0
 28 29  2  0  0  0  0
 28 57  1  0  0  0  0
 29 30  1  0  0  0  0
 29 31  1  0  0  0  0
 31 32  2  0  0  0  0
 31 33  1  0  0  0  0
 33 58  1  0  0  0  0
 33 59  1  0  0  0  0
 60 61  1  1  0  0  0
M  CHG  1  60   1
M  END
$$$$
