ZINC00403618
 OpenBabel08292219463D

 20 19  0  0  1  0  0  0  0  0999 V2000
   -0.0157    1.3058    0.0092 C   0  0  0  0  0  0  0  0  0  0  0  0
    0.0021   -0.0041    0.0020 C   0  0  0  0  0  0  0  0  0  0  0  0
   -1.2926   -0.7753    0.0102 C   0  0  1  0  0  0  0  0  0  0  0  0
   -2.1295   -0.0812   -0.0676 H   0  0  0  0  0  0  0  0  0  0  0  0
   -1.3187   -1.7407   -1.1764 C   0  0  0  0  0  0  0  0  0  0  0  0
   -2.6816   -2.4331   -1.2407 C   0  0  0  0  0  0  0  0  0  0  0  0
   -2.7073   -3.3840   -2.4095 C   0  0  0  0  0  0  0  0  0  0  0  0
   -1.7264   -3.4975   -3.1248 O   0  0  0  0  0  0  0  0  0  0  0  0
   -3.7089   -4.0399   -2.6399 O   0  0  0  0  0  1  0  0  0  0  0  0
   -1.4018   -1.5354    1.2625 N   0  3  0  0  0  0  0  0  0  0  0  0
    0.9122    1.8585    0.0033 H   0  0  0  0  0  0  0  0  0  0  0  0
   -0.9582    1.8330    0.0166 H   0  0  0  0  0  0  0  0  0  0  0  0
    0.9446   -0.5313   -0.0098 H   0  0  0  0  0  0  0  0  0  0  0  0
   -1.1488   -1.1865   -2.0995 H   0  0  0  0  0  0  0  0  0  0  0  0
   -0.5363   -2.4895   -1.0529 H   0  0  0  0  0  0  0  0  0  0  0  0
   -2.8515   -2.9872   -0.3176 H   0  0  0  0  0  0  0  0  0  0  0  0
   -3.4640   -1.6843   -1.3643 H   0  0  0  0  0  0  0  0  0  0  0  0
   -1.3846   -0.8987    2.0451 H   0  0  0  0  0  0  0  0  0  0  0  0
   -2.2687   -2.0518    1.2680 H   0  0  0  0  0  0  0  0  0  0  0  0
   -0.6272   -2.1779    1.3346 H   0  0  0  0  0  0  0  0  0  0  0  0
  1  2  2  0  0  0  0
  1 11  1  0  0  0  0
  1 12  1  0  0  0  0
  2  3  1  0  0  0  0
  2 13  1  0  0  0  0
  3  4  1  6  0  0  0
  3  5  1  0  0  0  0
  3 10  1  0  0  0  0
  5  6  1  0  0  0  0
  5 14  1  0  0  0  0
  5 15  1  0  0  0  0
  6  7  1  0  0  0  0
  6 16  1  0  0  0  0
  6 17  1  0  0  0  0
  7  8  2  0  0  0  0
  7  9  1  0  0  0  0
 10 18  1  0  0  0  0
 10 19  1  0  0  0  0
 10 20  1  0  0  0  0
M  CHG  1  10   1
M  END
$$$$
