ZINC03830612
 OpenBabel08292219463D

 44 45  0  0  1  0  0  0  0  0999 V2000
   -0.0366    1.0992   -2.4903 C   0  0  0  0  0  0  0  0  0  0  0  0
   -0.7527    1.5927   -1.2315 C   0  0  1  0  0  0  0  0  0  0  0  0
   -0.7675    2.6825   -1.2255 H   0  0  0  0  0  0  0  0  0  0  0  0
   -2.1881    1.0631   -1.2207 C   0  0  0  0  0  0  0  0  0  0  0  0
   -2.9042    1.5565    0.0381 C   0  0  2  0  0  0  0  0  0  0  0  0
   -2.9190    2.6464    0.0441 H   0  0  0  0  0  0  0  0  0  0  0  0
   -2.1642    1.0497    1.2777 C   0  0  0  0  0  0  0  0  0  0  0  0
   -0.7288    1.5792    1.2668 C   0  0  0  0  0  0  0  0  0  0  0  0
   -0.0127    1.0858    0.0080 C   0  0  0  0  0  0  0  0  0  0  0  0
    0.0111    1.0724    2.5063 C   0  0  0  0  0  0  0  0  0  0  0  0
   -0.7496    3.1091    1.2752 C   0  0  0  0  0  0  0  0  0  0  0  0
   -4.2664    1.0539    0.0485 O   0  0  0  0  0  0  0  0  0  0  0  0
   -5.2023    1.8179   -0.5365 C   0  0  0  0  0  0  0  0  0  0  0  0
   -4.8935    2.8717   -1.0405 O   0  0  0  0  0  0  0  0  0  0  0  0
   -6.6382    1.3613   -0.5647 C   0  0  1  0  0  0  0  0  0  0  0  0
   -6.6954    0.3697   -1.0137 H   0  0  0  0  0  0  0  0  0  0  0  0
   -7.1759    1.3075    0.8421 C   0  0  0  0  0  0  0  0  0  0  0  0
   -7.6836    2.4498    1.4321 C   0  0  0  0  0  0  0  0  0  0  0  0
   -8.1813    2.3993    2.7208 C   0  0  0  0  0  0  0  0  0  0  0  0
   -8.1616    1.2089    3.4232 C   0  0  0  0  0  0  0  0  0  0  0  0
   -7.6490    0.0677    2.8350 C   0  0  0  0  0  0  0  0  0  0  0  0
   -7.1561    0.1170    1.5445 C   0  0  0  0  0  0  0  0  0  0  0  0
   -7.4149    2.2793   -1.3367 O   0  0  0  0  0  0  0  0  0  0  0  0
   -0.0218    0.0093   -2.4963 H   0  0  0  0  0  0  0  0  0  0  0  0
   -0.5637    1.4603   -3.3734 H   0  0  0  0  0  0  0  0  0  0  0  0
    0.9860    1.4765   -2.4981 H   0  0  0  0  0  0  0  0  0  0  0  0
   -2.7153    1.4241   -2.1037 H   0  0  0  0  0  0  0  0  0  0  0  0
   -2.1733   -0.0268   -1.2266 H   0  0  0  0  0  0  0  0  0  0  0  0
   -2.6744    1.4012    2.1745 H   0  0  0  0  0  0  0  0  0  0  0  0
   -2.1494   -0.0402    1.2717 H   0  0  0  0  0  0  0  0  0  0  0  0
    0.0021   -0.0041    0.0020 H   0  0  0  0  0  0  0  0  0  0  0  0
    1.0099    1.4631    0.0003 H   0  0  0  0  0  0  0  0  0  0  0  0
    1.0337    1.4497    2.4986 H   0  0  0  0  0  0  0  0  0  0  0  0
   -0.4990    1.4239    3.4031 H   0  0  0  0  0  0  0  0  0  0  0  0
    0.0259   -0.0175    2.5003 H   0  0  0  0  0  0  0  0  0  0  0  0
   -1.2768    3.4701    0.3922 H   0  0  0  0  0  0  0  0  0  0  0  0
   -1.2598    3.4606    2.1720 H   0  0  0  0  0  0  0  0  0  0  0  0
    0.2730    3.4864    1.2675 H   0  0  0  0  0  0  0  0  0  0  0  0
   -7.6950    3.3808    0.8849 H   0  0  0  0  0  0  0  0  0  0  0  0
   -8.5814    3.2910    3.1804 H   0  0  0  0  0  0  0  0  0  0  0  0
   -8.5463    1.1704    4.4316 H   0  0  0  0  0  0  0  0  0  0  0  0
   -7.6333   -0.8623    3.3839 H   0  0  0  0  0  0  0  0  0  0  0  0
   -6.7553   -0.7745    1.0851 H   0  0  0  0  0  0  0  0  0  0  0  0
   -7.4097    3.1837   -0.9945 H   0  0  0  0  0  0  0  0  0  0  0  0
  1  2  1  0  0  0  0
  1 24  1  0  0  0  0
  1 25  1  0  0  0  0
  1 26  1  0  0  0  0
  2  3  1  1  0  0  0
  2  9  1  0  0  0  0
  2  4  1  0  0  0  0
  4  5  1  0  0  0  0
  4 27  1  0  0  0  0
  4 28  1  0  0  0  0
  5  6  1  1  0  0  0
  5  7  1  0  0  0  0
  5 12  1  0  0  0  0
  7  8  1  0  0  0  0
  7 29  1  0  0  0  0
  7 30  1  0  0  0  0
  8  9  1  0  0  0  0
  8 10  1  0  0  0  0
  8 11  1  0  0  0  0
  9 31  1  0  0  0  0
  9 32  1  0  0  0  0
 10 33  1  0  0  0  0
 10 34  1  0  0  0  0
 10 35  1  0  0  0  0
 11 36  1  0  0  0  0
 11 37  1  0  0  0  0
 11 38  1  0  0  0  0
 12 13  1  0  0  0  0
 13 14  2  0  0  0  0
 13 15  1  0  0  0  0
 15 16  1  6  0  0  0
 15 17  1  0  0  0  0
 15 23  1  0  0  0  0
 17 22  2  0  0  0  0
 17 18  1  0  0  0  0
 18 19  2  0  0  0  0
 18 39  1  0  0  0  0
 19 20  1  0  0  0  0
 19 40  1  0  0  0  0
 20 21  2  0  0  0  0
 20 41  1  0  0  0  0
 21 22  1  0  0  0  0
 21 42  1  0  0  0  0
 22 43  1  0  0  0  0
 23 44  1  0  0  0  0
M  END
$$$$
