ZINC00895099
 OpenBabel08292219463D

 19 18  0  0  1  0  0  0  0  0999 V2000
    1.4227    1.6154   -0.0028 C   0  0  0  0  0  0  0  0  0  0  0  0
   -0.0127    1.0858    0.0080 C   0  0  0  0  0  0  0  0  0  0  0  0
   -0.7527    1.5927   -1.2315 C   0  0  0  0  0  0  0  0  0  0  0  0
   -0.7288    1.5792    1.2668 C   0  0  1  0  0  0  0  0  0  0  0  0
   -0.7436    2.6691    1.2728 H   0  0  0  0  0  0  0  0  0  0  0  0
   -2.1427    1.0576    1.2775 C   0  0  0  0  0  0  0  0  0  0  0  0
   -2.4256    0.0929    1.9477 O   0  0  0  0  0  0  0  0  0  0  0  0
    1.4079    2.7053    0.0031 H   0  0  0  0  0  0  0  0  0  0  0  0
    1.9499    1.2543    0.8802 H   0  0  0  0  0  0  0  0  0  0  0  0
    1.9329    1.2639   -0.8996 H   0  0  0  0  0  0  0  0  0  0  0  0
    0.0021   -0.0041    0.0020 H   0  0  0  0  0  0  0  0  0  0  0  0
   -0.2425    1.2411   -2.1283 H   0  0  0  0  0  0  0  0  0  0  0  0
   -1.7753    1.2154   -1.2238 H   0  0  0  0  0  0  0  0  0  0  0  0
   -0.7675    2.6825   -1.2255 H   0  0  0  0  0  0  0  0  0  0  0  0
    0.0090    0.0841    2.4746 H   0  0  0  0  0  0  0  0  0  0  0  0
    0.9118    1.4805    2.5066 H   0  0  0  0  0  0  0  0  0  0  0  0
   -3.0876    1.6648    0.5425 O   0  0  0  0  0  1  0  0  0  0  0  0
   -0.0334    1.1019    2.4750 N   0  3  0  0  0  0  0  0  0  0  0  0
   -0.5478    1.4154    3.3065 H   0  0  0  0  0  0  0  0  0  0  0  0
  1  2  1  0  0  0  0
  1  8  1  0  0  0  0
  1  9  1  0  0  0  0
  1 10  1  0  0  0  0
  2  3  1  0  0  0  0
  2  4  1  0  0  0  0
  2 11  1  0  0  0  0
  3 12  1  0  0  0  0
  3 13  1  0  0  0  0
  3 14  1  0  0  0  0
  4  5  1  1  0  0  0
  4  6  1  0  0  0  0
  4 18  1  0  0  0  0
  6  7  2  0  0  0  0
  6 17  1  0  0  0  0
 15 18  1  0  0  0  0
 16 18  1  0  0  0  0
 18 19  1  0  0  0  0
M  CHG  1  18   1
M  END
$$$$
