ZINC00896681
 OpenBabel08292219463D

 44 46  0  0  1  0  0  0  0  0999 V2000
   -0.2440    1.6864   -0.2103 C   0  0  0  0  0  0  0  0  0  0  0  0
   -0.0788    0.1700   -0.0909 C   0  0  2  0  0  0  0  0  0  0  0  0
    0.5593   -0.0599    0.7623 H   0  0  0  0  0  0  0  0  0  0  0  0
    0.5621   -0.3753   -1.3687 C   0  0  0  0  0  0  0  0  0  0  0  0
    1.9222    0.1538   -1.4970 N   0  0  0  0  0  0  0  0  0  0  0  0
    2.1208    1.3602   -2.1770 C   0  0  0  0  0  0  0  0  0  0  0  0
    1.3717    1.6594   -3.3042 C   0  0  0  0  0  0  0  0  0  0  0  0
    1.5751    2.8540   -3.9727 C   0  0  0  0  0  0  0  0  0  0  0  0
    2.5223    3.7546   -3.5246 C   0  0  0  0  0  0  0  0  0  0  0  0
    3.2767    3.4660   -2.3989 C   0  0  0  0  0  0  0  0  0  0  0  0
    3.0772    2.2747   -1.7280 C   0  0  0  0  0  0  0  0  0  0  0  0
    4.0232    1.8781   -0.2906 S   0  0  0  0  0  0  0  0  0  0  0  0
    4.0498    0.1130   -0.3321 C   0  0  0  0  0  0  0  0  0  0  0  0
    2.9849   -0.5587   -0.9311 C   0  0  0  0  0  0  0  0  0  0  0  0
    2.9942   -1.9444   -0.9639 C   0  0  0  0  0  0  0  0  0  0  0  0
    4.0500   -2.6424   -0.4040 C   0  0  0  0  0  0  0  0  0  0  0  0
    5.0991   -1.9672    0.1899 C   0  0  0  0  0  0  0  0  0  0  0  0
    5.1021   -0.5912    0.2210 C   0  0  0  0  0  0  0  0  0  0  0  0
   -1.4503   -0.4783    0.1085 C   0  0  0  0  0  0  0  0  0  0  0  0
   -2.0065   -0.0593    1.4019 N   0  3  0  0  0  0  0  0  0  0  0  0
   -3.3782   -0.5684    1.5330 C   0  0  0  0  0  0  0  0  0  0  0  0
   -1.1782   -0.5984    2.4888 C   0  0  0  0  0  0  0  0  0  0  0  0
    0.7384    2.1565   -0.2548 H   0  0  0  0  0  0  0  0  0  0  0  0
   -0.8005    1.9210   -1.1177 H   0  0  0  0  0  0  0  0  0  0  0  0
   -0.7876    2.0620    0.6567 H   0  0  0  0  0  0  0  0  0  0  0  0
    0.5987   -1.4636   -1.3210 H   0  0  0  0  0  0  0  0  0  0  0  0
   -0.0297   -0.0691   -2.2313 H   0  0  0  0  0  0  0  0  0  0  0  0
    0.6297    0.9603   -3.6609 H   0  0  0  0  0  0  0  0  0  0  0  0
    0.9897    3.0838   -4.8507 H   0  0  0  0  0  0  0  0  0  0  0  0
    2.6751    4.6843   -4.0525 H   0  0  0  0  0  0  0  0  0  0  0  0
    4.0176    4.1689   -2.0476 H   0  0  0  0  0  0  0  0  0  0  0  0
    2.1776   -2.4793   -1.4260 H   0  0  0  0  0  0  0  0  0  0  0  0
    4.0537   -3.7220   -0.4310 H   0  0  0  0  0  0  0  0  0  0  0  0
    5.9192   -2.5196    0.6243 H   0  0  0  0  0  0  0  0  0  0  0  0
    5.9225   -0.0645    0.6857 H   0  0  0  0  0  0  0  0  0  0  0  0
   -2.1197   -0.1661   -0.6931 H   0  0  0  0  0  0  0  0  0  0  0  0
   -1.3452   -1.5631    0.0924 H   0  0  0  0  0  0  0  0  0  0  0  0
   -3.7771   -0.2908    2.5087 H   0  0  0  0  0  0  0  0  0  0  0  0
   -4.0020   -0.1379    0.7496 H   0  0  0  0  0  0  0  0  0  0  0  0
   -3.3735   -1.6542    1.4380 H   0  0  0  0  0  0  0  0  0  0  0  0
   -0.1604   -0.2207    2.3916 H   0  0  0  0  0  0  0  0  0  0  0  0
   -1.5910   -0.2876    3.4486 H   0  0  0  0  0  0  0  0  0  0  0  0
   -1.1687   -1.6869    2.4328 H   0  0  0  0  0  0  0  0  0  0  0  0
   -2.0153    0.9483    1.4538 H   0  0  0  0  0  0  0  0  0  0  0  0
  1  2  1  0  0  0  0
  1 23  1  0  0  0  0
  1 24  1  0  0  0  0
  1 25  1  0  0  0  0
  2  3  1  1  0  0  0
  2  4  1  0  0  0  0
  2 19  1  0  0  0  0
  4  5  1  0  0  0  0
  4 26  1  0  0  0  0
  4 27  1  0  0  0  0
  5 14  1  0  0  0  0
  5  6  1  0  0  0  0
  6 11  2  0  0  0  0
  6  7  1  0  0  0  0
  7  8  2  0  0  0  0
  7 28  1  0  0  0  0
  8  9  1  0  0  0  0
  8 29  1  0  0  0  0
  9 10  2  0  0  0  0
  9 30  1  0  0  0  0
 10 11  1  0  0  0  0
 10 31  1  0  0  0  0
 11 12  1  0  0  0  0
 12 13  1  0  0  0  0
 13 18  2  0  0  0  0
 13 14  1  0  0  0  0
 14 15  2  0  0  0  0
 15 16  1  0  0  0  0
 15 32  1  0  0  0  0
 16 17  2  0  0  0  0
 16 33  1  0  0  0  0
 17 18  1  0  0  0  0
 17 34  1  0  0  0  0
 18 35  1  0  0  0  0
 19 20  1  0  0  0  0
 19 36  1  0  0  0  0
 19 37  1  0  0  0  0
 20 21  1  0  0  0  0
 20 22  1  0  0  0  0
 20 44  1  0  0  0  0
 21 38  1  0  0  0  0
 21 39  1  0  0  0  0
 21 40  1  0  0  0  0
 22 41  1  0  0  0  0
 22 42  1  0  0  0  0
 22 43  1  0  0  0  0
M  CHG  1  20   1
M  END
$$$$
