ZINC08585139
 OpenBabel08292219463D

 71 74  0  0  1  0  0  0  0  0999 V2000
    8.7459    1.3068    9.1970 C   0  0  0  0  0  0  0  0  0  0  0  0
    8.1864    2.3147    8.1911 C   0  0  0  0  0  0  0  0  0  0  0  0
    7.1133    1.6556    7.3635 C   0  0  0  0  0  0  0  0  0  0  0  0
    6.8256    0.4984    7.5582 O   0  0  0  0  0  0  0  0  0  0  0  0
    6.4771    2.3541    6.4100 O   0  0  0  0  0  0  0  0  0  0  0  0
    5.4549    1.6550    5.6519 C   0  0  0  0  0  0  0  0  0  0  0  0
    4.8552    2.5915    4.6348 C   0  0  0  0  0  0  0  0  0  0  0  0
    5.1788    3.7548    4.6205 O   0  0  0  0  0  0  0  0  0  0  0  0
    3.8516    2.0762    3.6357 C   0  0  1  0  0  0  0  0  0  0  0  0
    2.9848    3.2367    3.1056 C   0  0  0  0  0  0  0  0  0  0  0  0
    3.2183    3.2959    1.5800 C   0  0  0  0  0  0  0  0  0  0  0  0
    3.6691    1.8495    1.2166 C   0  0  1  0  0  0  0  0  0  0  0  0
    4.2044    1.8074    0.2680 H   0  0  0  0  0  0  0  0  0  0  0  0
    4.5730    1.4984    2.4109 C   0  0  2  0  0  0  0  0  0  0  0  0
    4.8336    0.0144    2.5345 C   0  0  0  0  0  0  0  0  0  0  0  0
    3.5230   -0.7689    2.5758 C   0  0  1  0  0  0  0  0  0  0  0  0
    2.9297   -0.4485    3.4323 H   0  0  0  0  0  0  0  0  0  0  0  0
    2.7462   -0.4966    1.2810 C   0  0  2  0  0  0  0  0  0  0  0  0
    3.3493   -0.7885    0.4213 H   0  0  0  0  0  0  0  0  0  0  0  0
    2.4014    0.9879    1.1891 C   0  0  2  0  0  0  0  0  0  0  0  0
    1.7779    1.2655    2.0390 H   0  0  0  0  0  0  0  0  0  0  0  0
    1.6118    1.2927   -0.0618 C   0  0  0  0  0  0  0  0  0  0  0  0
    0.2807    0.5359   -0.0434 C   0  0  0  0  0  0  0  0  0  0  0  0
    0.5846   -0.9375    0.1546 C   0  0  0  0  0  0  0  0  0  0  0  0
    0.0737   -1.8203   -0.6922 C   0  0  0  0  0  0  0  0  0  0  0  0
    0.3948   -3.2508   -0.5629 C   0  0  0  0  0  0  0  0  0  0  0  0
   -0.0900   -4.0680   -1.3231 O   0  0  0  0  0  0  0  0  0  0  0  0
    1.3017   -3.6729    0.5178 C   0  0  0  0  0  0  0  0  0  0  0  0
    1.7812   -2.7761    1.3652 C   0  0  0  0  0  0  0  0  0  0  0  0
    1.4553   -1.3227    1.3128 C   0  0  1  0  0  0  0  0  0  0  0  0
    0.7066   -0.9653    2.5983 C   0  0  0  0  0  0  0  0  0  0  0  0
    3.8027   -2.1662    2.6822 O   0  0  0  0  0  0  0  0  0  0  0  0
    5.9068    2.2259    2.2303 C   0  0  0  0  0  0  0  0  0  0  0  0
    3.0125    1.0614    4.2475 O   0  0  0  0  0  0  0  0  0  0  0  0
    2.2900    1.4316    5.3202 C   0  0  0  0  0  0  0  0  0  0  0  0
    2.2938    2.5901    5.6844 O   0  0  0  0  0  0  0  0  0  0  0  0
    1.5633    0.5185    5.9896 O   0  0  0  0  0  0  0  0  0  0  0  0
    0.8084    0.9892    7.1371 C   0  0  0  0  0  0  0  0  0  0  0  0
    0.0509   -0.1826    7.7648 C   0  0  0  0  0  0  0  0  0  0  0  0
    9.1702    0.4570    8.6622 H   0  0  0  0  0  0  0  0  0  0  0  0
    9.5221    1.7835    9.7956 H   0  0  0  0  0  0  0  0  0  0  0  0
    7.9442    0.9617    9.8498 H   0  0  0  0  0  0  0  0  0  0  0  0
    8.9882    2.6598    7.5383 H   0  0  0  0  0  0  0  0  0  0  0  0
    7.7622    3.1645    8.7259 H   0  0  0  0  0  0  0  0  0  0  0  0
    4.7395    1.3351    6.2731 H   0  0  0  0  0  0  0  0  0  0  0  0
    5.9012    0.8016    5.1413 H   0  0  0  0  0  0  0  0  0  0  0  0
    1.9328    3.0437    3.3156 H   0  0  0  0  0  0  0  0  0  0  0  0
    3.2927    4.1746    3.5676 H   0  0  0  0  0  0  0  0  0  0  0  0
    2.2943    3.5507    1.0609 H   0  0  0  0  0  0  0  0  0  0  0  0
    4.0016    4.0150    1.3402 H   0  0  0  0  0  0  0  0  0  0  0  0
    5.3936   -0.1758    3.4501 H   0  0  0  0  0  0  0  0  0  0  0  0
    5.4227   -0.3181    1.6798 H   0  0  0  0  0  0  0  0  0  0  0  0
    2.1934    0.9814   -0.9296 H   0  0  0  0  0  0  0  0  0  0  0  0
    1.4187    2.3638   -0.1222 H   0  0  0  0  0  0  0  0  0  0  0  0
   -0.2394    0.6812   -0.9902 H   0  0  0  0  0  0  0  0  0  0  0  0
   -0.3382    0.8983    0.7775 H   0  0  0  0  0  0  0  0  0  0  0  0
   -0.5611   -1.4841   -1.4987 H   0  0  0  0  0  0  0  0  0  0  0  0
    1.5751   -4.7128    0.6191 H   0  0  0  0  0  0  0  0  0  0  0  0
    2.4489   -3.1184    2.1421 H   0  0  0  0  0  0  0  0  0  0  0  0
   -0.2353   -1.5126    2.6343 H   0  0  0  0  0  0  0  0  0  0  0  0
    1.3165   -1.2345    3.4608 H   0  0  0  0  0  0  0  0  0  0  0  0
    0.5054    0.1058    2.6158 H   0  0  0  0  0  0  0  0  0  0  0  0
    4.2929   -2.4096    3.4794 H   0  0  0  0  0  0  0  0  0  0  0  0
    6.3492    1.9421    1.2754 H   0  0  0  0  0  0  0  0  0  0  0  0
    5.7385    3.3027    2.2470 H   0  0  0  0  0  0  0  0  0  0  0  0
    6.5830    1.9513    3.0399 H   0  0  0  0  0  0  0  0  0  0  0  0
    1.4918    1.4152    7.8717 H   0  0  0  0  0  0  0  0  0  0  0  0
    0.0980    1.7513    6.8169 H   0  0  0  0  0  0  0  0  0  0  0  0
   -0.6325   -0.6086    7.0303 H   0  0  0  0  0  0  0  0  0  0  0  0
    0.7614   -0.9447    8.0850 H   0  0  0  0  0  0  0  0  0  0  0  0
   -0.5158    0.1708    8.6262 H   0  0  0  0  0  0  0  0  0  0  0  0
  1  2  1  0  0  0  0
  1 40  1  0  0  0  0
  1 41  1  0  0  0  0
  1 42  1  0  0  0  0
  2  3  1  0  0  0  0
  2 43  1  0  0  0  0
  2 44  1  0  0  0  0
  3  4  2  0  0  0  0
  3  5  1  0  0  0  0
  5  6  1  0  0  0  0
  6  7  1  0  0  0  0
  6 45  1  0  0  0  0
  6 46  1  0  0  0  0
  7  8  2  0  0  0  0
  9  7  1  1  0  0  0
  9 14  1  0  0  0  0
  9 10  1  0  0  0  0
  9 34  1  0  0  0  0
 10 11  1  0  0  0  0
 10 47  1  0  0  0  0
 10 48  1  0  0  0  0
 11 12  1  0  0  0  0
 11 49  1  0  0  0  0
 11 50  1  0  0  0  0
 12 13  1  6  0  0  0
 12 20  1  0  0  0  0
 12 14  1  0  0  0  0
 14 15  1  0  0  0  0
 14 33  1  6  0  0  0
 15 16  1  0  0  0  0
 15 51  1  0  0  0  0
 15 52  1  0  0  0  0
 16 17  1  1  0  0  0
 16 18  1  0  0  0  0
 16 32  1  0  0  0  0
 18 19  1  6  0  0  0
 18 30  1  0  0  0  0
 18 20  1  0  0  0  0
 20 21  1  1  0  0  0
 20 22  1  0  0  0  0
 22 23  1  0  0  0  0
 22 53  1  0  0  0  0
 22 54  1  0  0  0  0
 23 24  1  0  0  0  0
 23 55  1  0  0  0  0
 23 56  1  0  0  0  0
 24 30  1  0  0  0  0
 24 25  2  0  0  0  0
 25 26  1  0  0  0  0
 25 57  1  0  0  0  0
 26 27  2  0  0  0  0
 26 28  1  0  0  0  0
 28 29  2  0  0  0  0
 28 58  1  0  0  0  0
 29 30  1  0  0  0  0
 29 59  1  0  0  0  0
 30 31  1  1  0  0  0
 31 60  1  0  0  0  0
 31 61  1  0  0  0  0
 31 62  1  0  0  0  0
 32 63  1  0  0  0  0
 33 64  1  0  0  0  0
 33 65  1  0  0  0  0
 33 66  1  0  0  0  0
 34 35  1  0  0  0  0
 35 36  2  0  0  0  0
 35 37  1  0  0  0  0
 37 38  1  0  0  0  0
 38 39  1  0  0  0  0
 38 67  1  0  0  0  0
 38 68  1  0  0  0  0
 39 69  1  0  0  0  0
 39 70  1  0  0  0  0
 39 71  1  0  0  0  0
M  END
$$$$
