ZINC03992105
 OpenBabel08292219463D

 66 70  0  0  1  0  0  0  0  0999 V2000
    0.4404   -2.2918    3.9941 C   0  0  0  0  0  0  0  0  0  0  0  0
    0.1512   -0.8180    3.7020 C   0  0  2  0  0  0  0  0  0  0  0  0
    0.1263   -0.2498    4.6319 H   0  0  0  0  0  0  0  0  0  0  0  0
   -1.2036   -0.6784    2.9556 C   0  0  0  0  0  0  0  0  0  0  0  0
   -0.7835   -0.6266    1.4815 C   0  0  1  0  0  0  0  0  0  0  0  0
   -0.5116   -1.6224    1.1316 H   0  0  0  0  0  0  0  0  0  0  0  0
   -1.7691    0.0304    0.5326 C   0  0  2  0  0  0  0  0  0  0  0  0
   -1.9678    1.0516    0.8578 H   0  0  0  0  0  0  0  0  0  0  0  0
   -3.0751   -0.7661    0.5059 C   0  0  0  0  0  0  0  0  0  0  0  0
   -4.0731   -0.0870   -0.4364 C   0  0  1  0  0  0  0  0  0  0  0  0
   -4.3463    0.8838   -0.0228 H   0  0  0  0  0  0  0  0  0  0  0  0
   -3.4177    0.0999   -1.7919 C   0  0  0  0  0  0  0  0  0  0  0  0
   -4.0511   -0.3294   -2.8747 C   0  0  0  0  0  0  0  0  0  0  0  0
   -3.4344   -0.1979   -4.2038 C   0  0  0  0  0  0  0  0  0  0  0  0
   -4.0273   -0.5588   -5.2033 O   0  0  0  0  0  0  0  0  0  0  0  0
   -2.0830    0.3800   -4.2970 C   0  0  0  0  0  0  0  0  0  0  0  0
   -1.4719    0.8076   -3.2034 C   0  0  0  0  0  0  0  0  0  0  0  0
   -2.0690    0.7547   -1.8388 C   0  0  2  0  0  0  0  0  0  0  0  0
   -1.1248    0.0466   -0.8627 C   0  0  1  0  0  0  0  0  0  0  0  0
    0.2213    0.7650   -0.8532 C   0  0  2  0  0  0  0  0  0  0  0  0
    0.6814    0.6688   -1.8366 H   0  0  0  0  0  0  0  0  0  0  0  0
    1.1706    0.1791    0.2039 C   0  0  0  0  0  0  0  0  0  0  0  0
    0.4701    0.2869    1.5448 C   0  0  2  0  0  0  0  0  0  0  0  0
    1.2332   -0.2413    2.7552 C   0  0  1  0  0  0  0  0  0  0  0  0
    1.9768    0.8801    3.4338 C   0  0  0  0  0  0  0  0  0  0  0  0
    1.4860    1.4416    4.3908 O   0  0  0  0  0  0  0  0  0  0  0  0
    3.5140    1.3617    2.8544 S   0  0  0  0  0  0  0  0  0  0  0  0
    3.8878    2.6922    4.0231 C   0  0  0  0  0  0  0  0  0  0  0  0
    4.2422    2.1412    5.2593 F   0  0  0  0  0  0  0  0  0  0  0  0
    2.1566   -1.2864    2.3509 O   0  0  0  0  0  0  0  0  0  0  0  0
    2.9886   -1.7682    3.2971 C   0  0  0  0  0  0  0  0  0  0  0  0
    2.9732   -1.2962    4.4179 O   0  0  0  0  0  0  0  0  0  0  0  0
    3.9104   -2.8598    2.9748 C   0  0  0  0  0  0  0  0  0  0  0  0
    4.8015   -3.4386    3.8339 C   0  0  0  0  0  0  0  0  0  0  0  0
    5.4726   -4.4344    3.1083 C   0  0  0  0  0  0  0  0  0  0  0  0
    4.9690   -4.4208    1.8540 C   0  0  0  0  0  0  0  0  0  0  0  0
    4.0247   -3.4743    1.7789 O   0  0  0  0  0  0  0  0  0  0  0  0
    0.0442    1.7355    1.7922 C   0  0  0  0  0  0  0  0  0  0  0  0
    0.0084    2.1499   -0.5721 O   0  0  0  0  0  0  0  0  0  0  0  0
   -0.9413   -1.2694   -1.3005 F   0  0  0  0  0  0  0  0  0  0  0  0
   -2.2503    2.1934   -1.3508 C   0  0  0  0  0  0  0  0  0  0  0  0
   -5.2166   -0.8818   -0.5703 F   0  0  0  0  0  0  0  0  0  0  0  0
    1.3354   -2.3711    4.6112 H   0  0  0  0  0  0  0  0  0  0  0  0
   -0.4058   -2.7302    4.5231 H   0  0  0  0  0  0  0  0  0  0  0  0
    0.5976   -2.8240    3.0559 H   0  0  0  0  0  0  0  0  0  0  0  0
   -1.8398   -1.5428    3.1461 H   0  0  0  0  0  0  0  0  0  0  0  0
   -1.7086    0.2441    3.2422 H   0  0  0  0  0  0  0  0  0  0  0  0
   -2.8782   -1.7735    0.1392 H   0  0  0  0  0  0  0  0  0  0  0  0
   -3.4872   -0.8212    1.5135 H   0  0  0  0  0  0  0  0  0  0  0  0
   -5.0279   -0.7802   -2.7800 H   0  0  0  0  0  0  0  0  0  0  0  0
   -1.5913    0.4544   -5.2557 H   0  0  0  0  0  0  0  0  0  0  0  0
   -0.4791    1.2201   -3.3062 H   0  0  0  0  0  0  0  0  0  0  0  0
    1.3788   -0.8665   -0.0230 H   0  0  0  0  0  0  0  0  0  0  0  0
    2.1002    0.7479    0.2240 H   0  0  0  0  0  0  0  0  0  0  0  0
    4.7155    3.2897    3.6410 H   0  0  0  0  0  0  0  0  0  0  0  0
    3.0091    3.3254    4.1460 H   0  0  0  0  0  0  0  0  0  0  0  0
    4.9583   -3.1801    4.8707 H   0  0  0  0  0  0  0  0  0  0  0  0
    6.2461   -5.0891    3.4819 H   0  0  0  0  0  0  0  0  0  0  0  0
    5.2748   -5.0695    1.0465 H   0  0  0  0  0  0  0  0  0  0  0  0
   -0.7718    1.9946    1.1175 H   0  0  0  0  0  0  0  0  0  0  0  0
   -0.2889    1.8451    2.8242 H   0  0  0  0  0  0  0  0  0  0  0  0
    0.8900    2.3988    1.6110 H   0  0  0  0  0  0  0  0  0  0  0  0
    0.8159    2.6818   -0.5818 H   0  0  0  0  0  0  0  0  0  0  0  0
   -1.3728    2.7815   -1.6196 H   0  0  0  0  0  0  0  0  0  0  0  0
   -3.1349    2.6266   -1.8175 H   0  0  0  0  0  0  0  0  0  0  0  0
   -2.3722    2.1970   -0.2676 H   0  0  0  0  0  0  0  0  0  0  0  0
  1  2  1  0  0  0  0
  1 43  1  0  0  0  0
  1 44  1  0  0  0  0
  1 45  1  0  0  0  0
  2  3  1  1  0  0  0
  2 24  1  0  0  0  0
  2  4  1  0  0  0  0
  4  5  1  0  0  0  0
  4 46  1  0  0  0  0
  4 47  1  0  0  0  0
  5  6  1  6  0  0  0
  5 23  1  0  0  0  0
  5  7  1  0  0  0  0
  7  8  1  1  0  0  0
  7 19  1  0  0  0  0
  7  9  1  0  0  0  0
  9 10  1  0  0  0  0
  9 48  1  0  0  0  0
  9 49  1  0  0  0  0
 10 11  1  1  0  0  0
 10 12  1  0  0  0  0
 10 42  1  0  0  0  0
 12 18  1  0  0  0  0
 12 13  2  0  0  0  0
 13 14  1  0  0  0  0
 13 50  1  0  0  0  0
 14 15  2  0  0  0  0
 14 16  1  0  0  0  0
 16 17  2  0  0  0  0
 16 51  1  0  0  0  0
 17 18  1  0  0  0  0
 17 52  1  0  0  0  0
 18 19  1  0  0  0  0
 18 41  1  1  0  0  0
 19 20  1  0  0  0  0
 19 40  1  6  0  0  0
 20 21  1  6  0  0  0
 20 22  1  0  0  0  0
 20 39  1  0  0  0  0
 22 23  1  0  0  0  0
 22 53  1  0  0  0  0
 22 54  1  0  0  0  0
 23 24  1  0  0  0  0
 23 38  1  1  0  0  0
 24 25  1  1  0  0  0
 24 30  1  0  0  0  0
 25 26  2  0  0  0  0
 25 27  1  0  0  0  0
 27 28  1  0  0  0  0
 28 29  1  0  0  0  0
 28 55  1  0  0  0  0
 28 56  1  0  0  0  0
 30 31  1  0  0  0  0
 31 32  2  0  0  0  0
 31 33  1  0  0  0  0
 33 37  1  0  0  0  0
 33 34  2  0  0  0  0
 34 35  1  0  0  0  0
 34 57  1  0  0  0  0
 35 36  2  0  0  0  0
 35 58  1  0  0  0  0
 36 37  1  0  0  0  0
 36 59  1  0  0  0  0
 38 60  1  0  0  0  0
 38 61  1  0  0  0  0
 38 62  1  0  0  0  0
 39 63  1  0  0  0  0
 41 64  1  0  0  0  0
 41 65  1  0  0  0  0
 41 66  1  0  0  0  0
M  END
$$$$
