ZINC00001982
 OpenBabel08292219463D

 37 37  0  0  0  0  0  0  0  0999 V2000
   -0.0187    1.5258    0.0104 C   0  0  0  0  0  0  0  0  0  0  0  0
    0.0021   -0.0041    0.0020 C   0  0  0  0  0  0  0  0  0  0  0  0
   -1.4333   -0.5336    0.0129 C   0  0  0  0  0  0  0  0  0  0  0  0
   -1.4134   -1.9985    0.0048 N   0  0  0  0  0  0  0  0  0  0  0  0
   -1.2809   -2.7362    1.2636 C   0  0  0  0  0  0  0  0  0  0  0  0
   -2.6603   -2.9046    1.9037 C   0  0  0  0  0  0  0  0  0  0  0  0
   -2.5218   -3.6750    3.2183 C   0  0  0  0  0  0  0  0  0  0  0  0
   -1.5408   -2.8204   -1.4271 S   0  0  0  0  0  0  0  0  0  0  0  0
   -2.0455   -4.1107   -1.1113 O   0  0  0  0  0  0  0  0  0  0  0  0
   -2.1951   -1.9488   -2.3389 O   0  0  0  0  0  0  0  0  0  0  0  0
    0.0943   -3.0554   -2.0402 C   0  0  0  0  0  0  0  0  0  0  0  0
    0.6632   -2.1026   -2.8669 C   0  0  0  0  0  0  0  0  0  0  0  0
    1.9425   -2.2800   -3.3509 C   0  0  0  0  0  0  0  0  0  0  0  0
    2.6643   -3.4249   -3.0042 C   0  0  0  0  0  0  0  0  0  0  0  0
    2.0836   -4.3825   -2.1688 C   0  0  0  0  0  0  0  0  0  0  0  0
    0.8054   -4.1892   -1.6881 C   0  0  0  0  0  0  0  0  0  0  0  0
    4.0331   -3.6221   -3.5184 C   0  0  0  0  0  0  0  0  0  0  0  0
    4.5384   -2.7824   -4.2498 O   0  0  0  0  0  0  0  0  0  0  0  0
    4.6623   -4.6254   -3.2131 O   0  0  0  0  0  1  0  0  0  0  0  0
    1.0039    1.9031    0.0027 H   0  0  0  0  0  0  0  0  0  0  0  0
   -0.5459    1.8868   -0.8726 H   0  0  0  0  0  0  0  0  0  0  0  0
   -0.5289    1.8773    0.9072 H   0  0  0  0  0  0  0  0  0  0  0  0
    0.5123   -0.3556   -0.8948 H   0  0  0  0  0  0  0  0  0  0  0  0
    0.5293   -0.3651    0.8851 H   0  0  0  0  0  0  0  0  0  0  0  0
   -1.9435   -0.1821    0.9097 H   0  0  0  0  0  0  0  0  0  0  0  0
   -1.9605   -0.1726   -0.8702 H   0  0  0  0  0  0  0  0  0  0  0  0
   -0.8498   -3.7176    1.0659 H   0  0  0  0  0  0  0  0  0  0  0  0
   -0.6306   -2.1837    1.9418 H   0  0  0  0  0  0  0  0  0  0  0  0
   -3.0913   -1.9231    2.1014 H   0  0  0  0  0  0  0  0  0  0  0  0
   -3.3106   -3.4571    1.2255 H   0  0  0  0  0  0  0  0  0  0  0  0
   -2.0908   -4.6564    3.0206 H   0  0  0  0  0  0  0  0  0  0  0  0
   -1.8715   -3.1225    3.8965 H   0  0  0  0  0  0  0  0  0  0  0  0
   -3.5045   -3.7949    3.6744 H   0  0  0  0  0  0  0  0  0  0  0  0
    0.1041   -1.2180   -3.1340 H   0  0  0  0  0  0  0  0  0  0  0  0
    2.3850   -1.5359   -3.9965 H   0  0  0  0  0  0  0  0  0  0  0  0
    2.6358   -5.2699   -1.8968 H   0  0  0  0  0  0  0  0  0  0  0  0
    0.3568   -4.9263   -1.0387 H   0  0  0  0  0  0  0  0  0  0  0  0
  1  2  1  0  0  0  0
  1 20  1  0  0  0  0
  1 21  1  0  0  0  0
  1 22  1  0  0  0  0
  2  3  1  0  0  0  0
  2 23  1  0  0  0  0
  2 24  1  0  0  0  0
  3  4  1  0  0  0  0
  3 25  1  0  0  0  0
  3 26  1  0  0  0  0
  4  5  1  0  0  0  0
  4  8  1  0  0  0  0
  5  6  1  0  0  0  0
  5 27  1  0  0  0  0
  5 28  1  0  0  0  0
  6  7  1  0  0  0  0
  6 29  1  0  0  0  0
  6 30  1  0  0  0  0
  7 31  1  0  0  0  0
  7 32  1  0  0  0  0
  7 33  1  0  0  0  0
  8  9  2  0  0  0  0
  8 10  2  0  0  0  0
  8 11  1  0  0  0  0
 11 16  2  0  0  0  0
 11 12  1  0  0  0  0
 12 13  2  0  0  0  0
 12 34  1  0  0  0  0
 13 14  1  0  0  0  0
 13 35  1  0  0  0  0
 14 15  2  0  0  0  0
 14 17  1  0  0  0  0
 15 16  1  0  0  0  0
 15 36  1  0  0  0  0
 16 37  1  0  0  0  0
 17 18  2  0  0  0  0
 17 19  1  0  0  0  0
M  END
$$$$
