ZINC00039089
 OpenBabel08292219463D

 27 27  0  0  1  0  0  0  0  0999 V2000
   -0.0178    1.4648    0.0101 C   0  0  0  0  0  0  0  0  0  0  0  0
    0.0021   -0.0041    0.0020 N   0  3  0  0  0  0  0  0  0  0  0  0
    0.7126   -0.4907    1.1921 C   0  0  0  0  0  0  0  0  0  0  0  0
    0.7333   -2.0205    1.1837 C   0  0  1  0  0  0  0  0  0  0  0  0
    1.2435   -2.3721    0.2869 H   0  0  0  0  0  0  0  0  0  0  0  0
    1.4622   -2.5197    2.4046 C   0  0  0  0  0  0  0  0  0  0  0  0
    0.7829   -2.6724    3.5990 C   0  0  0  0  0  0  0  0  0  0  0  0
    1.4470   -3.1300    4.7218 C   0  0  0  0  0  0  0  0  0  0  0  0
    2.7964   -3.4372    4.6515 C   0  0  0  0  0  0  0  0  0  0  0  0
    3.4799   -3.2840    3.4492 C   0  0  0  0  0  0  0  0  0  0  0  0
    2.8072   -2.8295    2.3263 C   0  0  0  0  0  0  0  0  0  0  0  0
    4.8043   -3.5842    3.3751 O   0  0  0  0  0  0  0  0  0  0  0  0
    3.4513   -3.8871    5.7552 O   0  0  0  0  0  0  0  0  0  0  0  0
   -0.6073   -2.5152    1.1939 O   0  0  0  0  0  0  0  0  0  0  0  0
    1.0047    1.8421    0.0024 H   0  0  0  0  0  0  0  0  0  0  0  0
   -0.5450    1.8259   -0.8730 H   0  0  0  0  0  0  0  0  0  0  0  0
   -0.5280    1.8163    0.9069 H   0  0  0  0  0  0  0  0  0  0  0  0
   -0.9445   -0.3533    0.0092 H   0  0  0  0  0  0  0  0  0  0  0  0
    1.7352   -0.1134    1.1844 H   0  0  0  0  0  0  0  0  0  0  0  0
    0.2024   -0.1392    2.0889 H   0  0  0  0  0  0  0  0  0  0  0  0
   -0.2688   -2.4333    3.6552 H   0  0  0  0  0  0  0  0  0  0  0  0
    0.9143   -3.2477    5.6539 H   0  0  0  0  0  0  0  0  0  0  0  0
    3.3345   -2.7132    1.3910 H   0  0  0  0  0  0  0  0  0  0  0  0
    4.9865   -4.5027    3.1336 H   0  0  0  0  0  0  0  0  0  0  0  0
    3.4399   -4.8489    5.8546 H   0  0  0  0  0  0  0  0  0  0  0  0
   -1.1219   -2.2410    1.9653 H   0  0  0  0  0  0  0  0  0  0  0  0
    0.4744   -0.3295   -0.8281 H   0  0  0  0  0  0  0  0  0  0  0  0
  1  2  1  0  0  0  0
  1 15  1  0  0  0  0
  1 16  1  0  0  0  0
  1 17  1  0  0  0  0
  2  3  1  0  0  0  0
  2 18  1  0  0  0  0
  2 27  1  0  0  0  0
  3  4  1  0  0  0  0
  3 19  1  0  0  0  0
  3 20  1  0  0  0  0
  4  5  1  6  0  0  0
  4  6  1  0  0  0  0
  4 14  1  0  0  0  0
  6 11  2  0  0  0  0
  6  7  1  0  0  0  0
  7  8  2  0  0  0  0
  7 21  1  0  0  0  0
  8  9  1  0  0  0  0
  8 22  1  0  0  0  0
  9 10  2  0  0  0  0
  9 13  1  0  0  0  0
 10 11  1  0  0  0  0
 10 12  1  0  0  0  0
 11 23  1  0  0  0  0
 12 24  1  0  0  0  0
 13 25  1  0  0  0  0
 14 26  1  0  0  0  0
M  CHG  1   2   1
M  END
$$$$
