ZINC06827693
 OpenBabel08292219463D

  4  3  0  0  0  0  0  0  0  0999 V2000
   -0.0145    1.2208    0.0088 C   0  0  0  0  0  0  0  0  0  0  0  0
    0.0021   -0.0041    0.0020 O   0  0  0  0  0  0  0  0  0  0  0  0
    1.0379    1.8477    0.0021 O   0  0  0  0  0  0  0  0  0  0  0  0
   -1.0836    1.8188    0.0171 O   0  0  0  0  0  0  0  0  0  0  0  0
  1  2  2  0  0  0  0
  1  3  1  0  0  0  0
  1  4  1  0  0  0  0
M  END
$$$$
