ZINC19168887
 OpenBabel08292219463D

 30 30  0  0  1  0  0  0  0  0999 V2000
   -0.0187    1.5258    0.0104 C   0  0  0  0  0  0  0  0  0  0  0  0
    0.0021   -0.0041    0.0020 C   0  0  2  0  0  0  0  0  0  0  0  0
    0.7421   -0.5109    1.2415 C   0  0  0  0  0  0  0  0  0  0  0  0
    2.1559    0.0107    1.2308 C   0  0  0  0  0  0  0  0  0  0  0  0
    3.1553   -0.7181    0.6133 C   0  0  0  0  0  0  0  0  0  0  0  0
    4.4538   -0.2439    0.6007 C   0  0  0  0  0  0  0  0  0  0  0  0
    4.7559    0.9646    1.2076 C   0  0  0  0  0  0  0  0  0  0  0  0
    3.7499    1.6984    1.8288 C   0  0  0  0  0  0  0  0  0  0  0  0
    2.4495    1.2196    1.8336 C   0  0  0  0  0  0  0  0  0  0  0  0
    4.0414    2.8850    2.4259 O   0  0  0  0  0  0  0  0  0  0  0  0
    6.0328    1.4323    1.1966 O   0  0  0  0  0  0  0  0  0  0  0  0
    0.7074   -0.4901   -1.2379 C   0  0  0  0  0  0  0  0  0  0  0  0
    1.8687   -0.1786   -1.4402 O   0  0  0  0  0  0  0  0  0  0  0  0
    0.1168   -1.1947   -2.0386 O   0  0  0  0  0  1  0  0  0  0  0  0
   -1.3761   -0.5125    0.0124 N   0  3  0  0  0  0  0  0  0  0  0  0
   -2.0793   -0.0309   -1.1655 N   0  0  0  0  0  0  0  0  0  0  0  0
    1.0039    1.9031    0.0027 H   0  0  0  0  0  0  0  0  0  0  0  0
   -0.5459    1.8868   -0.8726 H   0  0  0  0  0  0  0  0  0  0  0  0
   -0.5289    1.8773    0.9072 H   0  0  0  0  0  0  0  0  0  0  0  0
    0.2319   -0.1594    2.1383 H   0  0  0  0  0  0  0  0  0  0  0  0
    0.7568   -1.6008    1.2356 H   0  0  0  0  0  0  0  0  0  0  0  0
    2.9211   -1.6601    0.1399 H   0  0  0  0  0  0  0  0  0  0  0  0
    5.2328   -0.8155    0.1182 H   0  0  0  0  0  0  0  0  0  0  0  0
    1.6662    1.7890    2.3118 H   0  0  0  0  0  0  0  0  0  0  0  0
    3.9644    3.6498    1.8392 H   0  0  0  0  0  0  0  0  0  0  0  0
    6.2411    1.9892    0.4340 H   0  0  0  0  0  0  0  0  0  0  0  0
   -1.3624   -1.5214    0.0069 H   0  0  0  0  0  0  0  0  0  0  0  0
   -3.0305   -0.3672   -1.1815 H   0  0  0  0  0  0  0  0  0  0  0  0
   -2.0511    0.9764   -1.2168 H   0  0  0  0  0  0  0  0  0  0  0  0
   -1.8484   -0.1871    0.8426 H   0  0  0  0  0  0  0  0  0  0  0  0
  1  2  1  0  0  0  0
  1 17  1  0  0  0  0
  1 18  1  0  0  0  0
  1 19  1  0  0  0  0
  2  3  1  0  0  0  0
  2 12  1  6  0  0  0
  2 15  1  0  0  0  0
  3  4  1  0  0  0  0
  3 20  1  0  0  0  0
  3 21  1  0  0  0  0
  4  9  2  0  0  0  0
  4  5  1  0  0  0  0
  5  6  2  0  0  0  0
  5 22  1  0  0  0  0
  6  7  1  0  0  0  0
  6 23  1  0  0  0  0
  7  8  2  0  0  0  0
  7 11  1  0  0  0  0
  8  9  1  0  0  0  0
  8 10  1  0  0  0  0
  9 24  1  0  0  0  0
 10 25  1  0  0  0  0
 11 26  1  0  0  0  0
 12 13  2  0  0  0  0
 12 14  1  0  0  0  0
 15 16  1  0  0  0  0
 15 27  1  0  0  0  0
 15 30  1  0  0  0  0
 16 28  1  0  0  0  0
 16 29  1  0  0  0  0
M  CHG  1  15   1
M  END
$$$$
