ZINC95483532
 OpenBabel08292219463D

 27 28  0  0  0  0  0  0  0  0999 V2000
   -0.0167    1.3796    0.0096 C   0  0  0  0  0  0  0  0  0  0  0  0
    1.1682    2.0945    0.0022 C   0  0  0  0  0  0  0  0  0  0  0  0
    2.3774    1.4315   -0.0134 C   0  0  0  0  0  0  0  0  0  0  0  0
    2.4042    0.0344   -0.0212 C   0  0  0  0  0  0  0  0  0  0  0  0
    1.2038   -0.6807   -0.0131 C   0  0  0  0  0  0  0  0  0  0  0  0
    0.0021   -0.0041    0.0020 C   0  0  0  0  0  0  0  0  0  0  0  0
    3.5994   -0.6297   -0.0371 N   0  0  0  0  0  0  0  0  0  0  0  0
    3.6206   -1.9195   -0.0443 N   0  0  0  0  0  0  0  0  0  0  0  0
    4.8103   -2.5806   -0.0601 C   0  0  0  0  0  0  0  0  0  0  0  0
    6.0206   -1.8705   -0.0629 C   0  0  0  0  0  0  0  0  0  0  0  0
    7.1936   -2.5765   -0.0791 C   0  0  0  0  0  0  0  0  0  0  0  0
    7.1582   -3.9697   -0.0922 C   0  0  0  0  0  0  0  0  0  0  0  0
    6.0063   -4.6251   -0.0898 N   0  0  0  0  0  0  0  0  0  0  0  0
    4.8466   -3.9873   -0.0680 C   0  0  0  0  0  0  0  0  0  0  0  0
    3.6643   -4.7071   -0.0596 N   0  0  0  0  0  0  0  0  0  0  0  0
    8.3473   -4.6816   -0.1086 N   0  0  0  0  0  0  0  0  0  0  0  0
   -0.9606    1.9042    0.0260 H   0  0  0  0  0  0  0  0  0  0  0  0
    1.1459    3.1743    0.0082 H   0  0  0  0  0  0  0  0  0  0  0  0
    3.3014    1.9906   -0.0200 H   0  0  0  0  0  0  0  0  0  0  0  0
    1.2169   -1.7606   -0.0194 H   0  0  0  0  0  0  0  0  0  0  0  0
   -0.9266   -0.5554    0.0083 H   0  0  0  0  0  0  0  0  0  0  0  0
    6.0267   -0.7906   -0.0530 H   0  0  0  0  0  0  0  0  0  0  0  0
    8.1404   -2.0569   -0.0821 H   0  0  0  0  0  0  0  0  0  0  0  0
    2.8133   -4.2419   -0.0483 H   0  0  0  0  0  0  0  0  0  0  0  0
    3.6869   -5.6769   -0.0651 H   0  0  0  0  0  0  0  0  0  0  0  0
    9.1949   -4.2100   -0.1108 H   0  0  0  0  0  0  0  0  0  0  0  0
    8.3319   -5.6514   -0.1178 H   0  0  0  0  0  0  0  0  0  0  0  0
  1  6  2  0  0  0  0
  1  2  1  0  0  0  0
  1 17  1  0  0  0  0
  2  3  2  0  0  0  0
  2 18  1  0  0  0  0
  3  4  1  0  0  0  0
  3 19  1  0  0  0  0
  4  5  2  0  0  0  0
  4  7  1  0  0  0  0
  5  6  1  0  0  0  0
  5 20  1  0  0  0  0
  6 21  1  0  0  0  0
  7  8  2  0  0  0  0
  8  9  1  0  0  0  0
  9 14  2  0  0  0  0
  9 10  1  0  0  0  0
 10 11  2  0  0  0  0
 10 22  1  0  0  0  0
 11 12  1  0  0  0  0
 11 23  1  0  0  0  0
 12 13  2  0  0  0  0
 12 16  1  0  0  0  0
 13 14  1  0  0  0  0
 14 15  1  0  0  0  0
 15 24  1  0  0  0  0
 15 25  1  0  0  0  0
 16 26  1  0  0  0  0
 16 27  1  0  0  0  0
M  END
$$$$
