ZINC21989209
 OpenBabel08292219463D

 51 55  0  0  1  0  0  0  0  0999 V2000
   -4.0712    4.4811    4.1588 C   0  0  0  0  0  0  0  0  0  0  0  0
   -4.7303    4.9639    2.8652 C   0  0  2  0  0  0  0  0  0  0  0  0
   -4.9833    3.7939    1.9314 C   0  0  0  0  0  0  0  0  0  0  0  0
   -3.6365    3.0842    1.7190 C   0  0  0  0  0  0  0  0  0  0  0  0
   -2.5839    4.0326    1.1534 C   0  0  1  0  0  0  0  0  0  0  0  0
   -2.9134    4.3476    0.1523 H   0  0  0  0  0  0  0  0  0  0  0  0
   -2.4348    5.2858    2.0228 C   0  0  2  0  0  0  0  0  0  0  0  0
   -2.0727    5.0202    3.0270 H   0  0  0  0  0  0  0  0  0  0  0  0
   -3.7955    5.9483    2.1121 C   0  0  2  0  0  0  0  0  0  0  0  0
   -4.0326    6.2081    1.0699 H   0  0  0  0  0  0  0  0  0  0  0  0
   -3.8803    7.2215    2.9474 C   0  0  0  0  0  0  0  0  0  0  0  0
   -5.2912    7.1982    3.5864 C   0  0  0  0  0  0  0  0  0  0  0  0
   -5.9426    5.8540    3.1612 C   0  0  2  0  0  0  0  0  0  0  0  0
   -6.6804    5.9155    2.3477 H   0  0  0  0  0  0  0  0  0  0  0  0
   -6.7211    5.3094    4.2286 O   0  0  0  0  0  0  0  0  0  0  0  0
   -1.4356    6.2510    1.3870 C   0  0  0  0  0  0  0  0  0  0  0  0
   -0.0537    5.6075    1.2893 C   0  0  0  0  0  0  0  0  0  0  0  0
   -0.1498    4.2702    0.5675 C   0  0  2  0  0  0  0  0  0  0  0  0
   -1.2509    3.3172    1.0232 C   0  0  2  0  0  0  0  0  0  0  0  0
   -1.3382    2.1589    0.0202 C   0  0  0  0  0  0  0  0  0  0  0  0
   -0.0173    1.4278    0.0099 C   0  0  2  0  0  0  0  0  0  0  0  0
    1.1412    2.1109    0.0025 C   0  0  0  0  0  0  0  0  0  0  0  0
    1.1242    3.6233    0.0148 C   0  0  1  0  0  0  0  0  0  0  0  0
    2.2085    3.7322    0.1648 H   0  0  0  0  0  0  0  0  0  0  0  0
    0.1698    4.2667   -0.8315 O   0  0  0  0  0  0  0  0  0  0  0  0
    2.3172    1.4478   -0.0154 O   0  0  0  0  0  0  0  0  0  0  0  0
    0.0021   -0.0041    0.0020 C   0  0  0  0  0  0  0  0  0  0  0  0
    0.0175   -1.1399   -0.0042 N   0  0  0  0  0  0  0  0  0  0  0  0
   -0.8779    2.7562    2.3969 C   0  0  0  0  0  0  0  0  0  0  0  0
   -4.7475    3.7858    4.6775 H   0  0  0  0  0  0  0  0  0  0  0  0
   -3.8635    5.3440    4.8087 H   0  0  0  0  0  0  0  0  0  0  0  0
   -3.1287    3.9665    3.9202 H   0  0  0  0  0  0  0  0  0  0  0  0
   -5.7134    3.1104    2.3895 H   0  0  0  0  0  0  0  0  0  0  0  0
   -5.3797    4.1668    0.9755 H   0  0  0  0  0  0  0  0  0  0  0  0
   -3.2715    2.6949    2.6809 H   0  0  0  0  0  0  0  0  0  0  0  0
   -3.7683    2.2513    1.0126 H   0  0  0  0  0  0  0  0  0  0  0  0
   -3.0905    7.2110    3.7130 H   0  0  0  0  0  0  0  0  0  0  0  0
   -3.7472    8.0974    2.2954 H   0  0  0  0  0  0  0  0  0  0  0  0
   -5.1992    7.2628    4.6806 H   0  0  0  0  0  0  0  0  0  0  0  0
   -5.8755    8.0536    3.2165 H   0  0  0  0  0  0  0  0  0  0  0  0
   -7.6299    5.8286    4.5669 H   0  0  0  0  0  0  0  0  0  0  0  0
   -1.7765    6.5181    0.3758 H   0  0  0  0  0  0  0  0  0  0  0  0
   -1.3624    7.1604    2.0015 H   0  0  0  0  0  0  0  0  0  0  0  0
    0.6215    6.2720    0.7303 H   0  0  0  0  0  0  0  0  0  0  0  0
    0.3471    5.4442    2.3006 H   0  0  0  0  0  0  0  0  0  0  0  0
   -2.1431    1.4725    0.3219 H   0  0  0  0  0  0  0  0  0  0  0  0
   -1.5528    2.5574   -0.9824 H   0  0  0  0  0  0  0  0  0  0  0  0
    1.0737    1.5628    0.0480 H   0  0  0  0  0  0  0  0  0  0  0  0
    0.0867    2.2318    2.3292 H   0  0  0  0  0  0  0  0  0  0  0  0
   -1.6554    2.0525    2.7290 H   0  0  0  0  0  0  0  0  0  0  0  0
   -0.7968    3.5811    3.1201 H   0  0  0  0  0  0  0  0  0  0  0  0
  1 30  1  0  0  0  0
  1 31  1  0  0  0  0
  1 32  1  0  0  0  0
  2  1  1  1  0  0  0
  2  9  1  0  0  0  0
  2 13  1  0  0  0  0
  2  3  1  0  0  0  0
  3  4  1  0  0  0  0
  3 33  1  0  0  0  0
  3 34  1  0  0  0  0
  4  5  1  0  0  0  0
  4 35  1  0  0  0  0
  4 36  1  0  0  0  0
  5  6  1  6  0  0  0
  5 19  1  0  0  0  0
  5  7  1  0  0  0  0
  7  8  1  1  0  0  0
  7  9  1  0  0  0  0
  7 16  1  0  0  0  0
  9 10  1  6  0  0  0
  9 11  1  0  0  0  0
 11 12  1  0  0  0  0
 11 37  1  0  0  0  0
 11 38  1  0  0  0  0
 12 13  1  0  0  0  0
 12 39  1  0  0  0  0
 12 40  1  0  0  0  0
 13 14  1  6  0  0  0
 13 15  1  0  0  0  0
 15 41  1  0  0  0  0
 16 17  1  0  0  0  0
 16 42  1  0  0  0  0
 16 43  1  0  0  0  0
 17 18  1  0  0  0  0
 17 44  1  0  0  0  0
 17 45  1  0  0  0  0
 18 25  1  6  0  0  0
 18 19  1  0  0  0  0
 18 23  1  0  0  0  0
 19 20  1  0  0  0  0
 19 29  1  1  0  0  0
 20 46  1  0  0  0  0
 20 47  1  0  0  0  0
 20 21  1  0  0  0  0
 21 27  1  0  0  0  0
 21 48  1  1  0  0  0
 21 22  1  0  0  0  0
 22 26  2  0  0  0  0
 22 23  1  0  0  0  0
 23 25  1  0  0  0  0
 23 24  1  1  0  0  0
 27 28  3  0  0  0  0
 29 49  1  0  0  0  0
 29 50  1  0  0  0  0
 29 51  1  0  0  0  0
M  END
$$$$
