ZINC03960338
 OpenBabel08292219463D

 40 42  0  0  1  0  0  0  0  0999 V2000
   -0.0187    1.5258    0.0104 C   0  0  0  0  0  0  0  0  0  0  0  0
    0.0021   -0.0041    0.0020 C   0  0  0  0  0  0  0  0  0  0  0  0
   -1.4117   -0.5257    0.0127 C   0  0  0  0  0  0  0  0  0  0  0  0
   -2.3441    0.2498    0.0258 O   0  0  0  0  0  0  0  0  0  0  0  0
   -1.6400   -1.8540    0.0078 N   0  0  0  0  0  0  0  0  0  0  0  0
   -3.0144   -2.3611    0.0182 C   0  0  0  0  0  0  0  0  0  0  0  0
   -2.9937   -3.8909    0.0097 C   0  0  0  0  0  0  0  0  0  0  0  0
   -4.4290   -4.4205    0.0206 C   0  0  2  0  0  0  0  0  0  0  0  0
   -4.9976   -3.9869   -0.8021 H   0  0  0  0  0  0  0  0  0  0  0  0
   -5.1081   -4.0990    1.3687 C   0  0  0  0  0  0  0  0  0  0  0  0
   -4.8222   -5.3706    2.1955 C   0  0  0  0  0  0  0  0  0  0  0  0
   -4.6587   -6.4773    1.1763 C   0  0  0  0  0  0  0  0  0  0  0  0
   -4.4322   -5.9313   -0.0776 C   0  0  0  0  0  0  0  0  0  0  0  0
   -4.2565   -6.7602   -1.1667 C   0  0  0  0  0  0  0  0  0  0  0  0
   -4.2932   -8.1409   -1.0282 C   0  0  0  0  0  0  0  0  0  0  0  0
   -4.5240   -8.6833    0.2332 C   0  0  0  0  0  0  0  0  0  0  0  0
   -4.7052   -7.8529    1.3263 C   0  0  0  0  0  0  0  0  0  0  0  0
   -4.0739   -8.7621   -2.2196 O   0  0  0  0  0  0  0  0  0  0  0  0
   -4.3201   -7.8336   -3.2895 C   0  0  0  0  0  0  0  0  0  0  0  0
   -4.0117   -6.4665   -2.6342 C   0  0  0  0  0  0  0  0  0  0  0  0
    1.0039    1.9031    0.0027 H   0  0  0  0  0  0  0  0  0  0  0  0
   -0.5459    1.8868   -0.8726 H   0  0  0  0  0  0  0  0  0  0  0  0
   -0.5289    1.8773    0.9072 H   0  0  0  0  0  0  0  0  0  0  0  0
    0.5123   -0.3556   -0.8948 H   0  0  0  0  0  0  0  0  0  0  0  0
    0.5293   -0.3651    0.8851 H   0  0  0  0  0  0  0  0  0  0  0  0
   -0.8943   -2.4742   -0.0027 H   0  0  0  0  0  0  0  0  0  0  0  0
   -3.5246   -2.0095    0.9150 H   0  0  0  0  0  0  0  0  0  0  0  0
   -3.5416   -2.0000   -0.8649 H   0  0  0  0  0  0  0  0  0  0  0  0
   -2.4835   -4.2424   -0.8870 H   0  0  0  0  0  0  0  0  0  0  0  0
   -2.4665   -4.2520    0.8928 H   0  0  0  0  0  0  0  0  0  0  0  0
   -4.6526   -3.2244    1.8331 H   0  0  0  0  0  0  0  0  0  0  0  0
   -6.1806   -3.9551    1.2377 H   0  0  0  0  0  0  0  0  0  0  0  0
   -3.9051   -5.2487    2.7718 H   0  0  0  0  0  0  0  0  0  0  0  0
   -5.6602   -5.5874    2.8580 H   0  0  0  0  0  0  0  0  0  0  0  0
   -4.5616   -9.7551    0.3602 H   0  0  0  0  0  0  0  0  0  0  0  0
   -4.8851   -8.2793    2.3021 H   0  0  0  0  0  0  0  0  0  0  0  0
   -3.6473   -8.0214   -4.1262 H   0  0  0  0  0  0  0  0  0  0  0  0
   -5.3606   -7.8819   -3.6108 H   0  0  0  0  0  0  0  0  0  0  0  0
   -4.6942   -5.6979   -2.9968 H   0  0  0  0  0  0  0  0  0  0  0  0
   -2.9749   -6.1773   -2.8060 H   0  0  0  0  0  0  0  0  0  0  0  0
  1  2  1  0  0  0  0
  1 21  1  0  0  0  0
  1 22  1  0  0  0  0
  1 23  1  0  0  0  0
  2  3  1  0  0  0  0
  2 24  1  0  0  0  0
  2 25  1  0  0  0  0
  3  4  2  0  0  0  0
  3  5  1  0  0  0  0
  5  6  1  0  0  0  0
  5 26  1  0  0  0  0
  6  7  1  0  0  0  0
  6 27  1  0  0  0  0
  6 28  1  0  0  0  0
  7  8  1  0  0  0  0
  7 29  1  0  0  0  0
  7 30  1  0  0  0  0
  8  9  1  6  0  0  0
  8 13  1  0  0  0  0
  8 10  1  0  0  0  0
 10 11  1  0  0  0  0
 10 31  1  0  0  0  0
 10 32  1  0  0  0  0
 11 12  1  0  0  0  0
 11 33  1  0  0  0  0
 11 34  1  0  0  0  0
 12 17  2  0  0  0  0
 12 13  1  0  0  0  0
 13 14  2  0  0  0  0
 14 20  1  0  0  0  0
 14 15  1  0  0  0  0
 15 16  2  0  0  0  0
 15 18  1  0  0  0  0
 16 17  1  0  0  0  0
 16 35  1  0  0  0  0
 17 36  1  0  0  0  0
 18 19  1  0  0  0  0
 19 20  1  0  0  0  0
 19 37  1  0  0  0  0
 19 38  1  0  0  0  0
 20 39  1  0  0  0  0
 20 40  1  0  0  0  0
M  END
$$$$
