ZINC00004778
 OpenBabel08292219463D

 34 37  0  0  0  0  0  0  0  0999 V2000
   -0.0184    1.5028    0.0103 C   0  0  0  0  0  0  0  0  0  0  0  0
    0.0021   -0.0041    0.0020 C   0  0  0  0  0  0  0  0  0  0  0  0
    0.0061   -0.7057   -1.1955 C   0  0  0  0  0  0  0  0  0  0  0  0
    0.0283   -2.0849   -1.1694 C   0  0  0  0  0  0  0  0  0  0  0  0
    0.0626   -2.7397   -0.0244 N   0  0  0  0  0  0  0  0  0  0  0  0
    0.0689   -2.1114    1.1426 C   0  0  0  0  0  0  0  0  0  0  0  0
    0.0231   -0.7203    1.1946 C   0  0  0  0  0  0  0  0  0  0  0  0
   -0.0518   -0.0308    2.4019 N   0  0  0  0  0  0  0  0  0  0  0  0
    0.6012   -0.3134    3.5189 C   0  0  0  0  0  0  0  0  0  0  0  0
    0.4191    0.4213    4.4703 O   0  0  0  0  0  0  0  0  0  0  0  0
    1.5243   -1.4365    3.7064 C   0  0  0  0  0  0  0  0  0  0  0  0
    2.6915   -1.2661    4.4602 C   0  0  0  0  0  0  0  0  0  0  0  0
    3.5187   -2.3596    4.6485 C   0  0  0  0  0  0  0  0  0  0  0  0
    3.1697   -3.5793    4.0971 C   0  0  0  0  0  0  0  0  0  0  0  0
    2.0727   -3.7148    3.3781 N   0  0  0  0  0  0  0  0  0  0  0  0
    1.2586   -2.6951    3.1469 C   0  0  0  0  0  0  0  0  0  0  0  0
    0.1549   -2.8635    2.3146 N   0  0  0  0  0  0  0  0  0  0  0  0
   -0.8987   -3.8222    2.6566 C   0  0  0  0  0  0  0  0  0  0  0  0
   -0.8469   -4.4633    4.0449 C   0  0  0  0  0  0  0  0  0  0  0  0
   -0.4962   -5.2907    2.8065 C   0  0  0  0  0  0  0  0  0  0  0  0
    1.0042    1.8801    0.0026 H   0  0  0  0  0  0  0  0  0  0  0  0
   -0.5455    1.8639   -0.8728 H   0  0  0  0  0  0  0  0  0  0  0  0
   -0.5286    1.8543    0.9071 H   0  0  0  0  0  0  0  0  0  0  0  0
   -0.0083   -0.1777   -2.1375 H   0  0  0  0  0  0  0  0  0  0  0  0
    0.0178   -2.6357   -2.0983 H   0  0  0  0  0  0  0  0  0  0  0  0
   -0.6440    0.7371    2.4274 H   0  0  0  0  0  0  0  0  0  0  0  0
    2.9407   -0.3046    4.8842 H   0  0  0  0  0  0  0  0  0  0  0  0
    4.4289   -2.2615    5.2215 H   0  0  0  0  0  0  0  0  0  0  0  0
    3.8074   -4.4359    4.2580 H   0  0  0  0  0  0  0  0  0  0  0  0
   -1.8818   -3.6102    2.2362 H   0  0  0  0  0  0  0  0  0  0  0  0
   -0.0288   -4.1719    4.7036 H   0  0  0  0  0  0  0  0  0  0  0  0
   -1.7960   -4.6732    4.5381 H   0  0  0  0  0  0  0  0  0  0  0  0
   -1.2145   -6.0448    2.4851 H   0  0  0  0  0  0  0  0  0  0  0  0
    0.5526   -5.5435    2.6506 H   0  0  0  0  0  0  0  0  0  0  0  0
  1  2  1  0  0  0  0
  1 21  1  0  0  0  0
  1 22  1  0  0  0  0
  1 23  1  0  0  0  0
  2  7  2  0  0  0  0
  2  3  1  0  0  0  0
  3  4  2  0  0  0  0
  3 24  1  0  0  0  0
  4  5  1  0  0  0  0
  4 25  1  0  0  0  0
  5  6  2  0  0  0  0
  6 17  1  0  0  0  0
  6  7  1  0  0  0  0
  7  8  1  0  0  0  0
  8  9  1  0  0  0  0
  8 26  1  0  0  0  0
  9 10  2  0  0  0  0
  9 11  1  0  0  0  0
 11 16  2  0  0  0  0
 11 12  1  0  0  0  0
 12 13  2  0  0  0  0
 12 27  1  0  0  0  0
 13 14  1  0  0  0  0
 13 28  1  0  0  0  0
 14 15  2  0  0  0  0
 14 29  1  0  0  0  0
 15 16  1  0  0  0  0
 16 17  1  0  0  0  0
 17 18  1  0  0  0  0
 18 20  1  0  0  0  0
 18 19  1  0  0  0  0
 18 30  1  0  0  0  0
 19 20  1  0  0  0  0
 19 31  1  0  0  0  0
 19 32  1  0  0  0  0
 20 33  1  0  0  0  0
 20 34  1  0  0  0  0
M  END
$$$$
