ZINC00896546
 OpenBabel08292219463D

 13 13  0  0  0  0  0  0  0  0999 V2000
   -0.0164    1.3603    0.0095 C   0  0  0  0  0  0  0  0  0  0  0  0
    1.1568    2.0383    0.0020 C   0  0  0  0  0  0  0  0  0  0  0  0
    2.3661    1.3106   -0.0135 C   0  0  0  0  0  0  0  0  0  0  0  0
    2.3335   -0.0154   -0.0203 N   0  0  0  0  0  0  0  0  0  0  0  0
    1.1725   -0.6678   -0.0127 C   0  0  0  0  0  0  0  0  0  0  0  0
    1.1701   -1.8878   -0.0188 O   0  0  0  0  0  0  0  0  0  0  0  0
    0.0021   -0.0041    0.0020 N   0  0  0  0  0  0  0  0  0  0  0  0
   -0.8327   -0.4980    0.0077 H   0  0  0  0  0  0  0  0  0  0  0  0
    3.5724    1.9732   -0.0219 N   0  0  0  0  0  0  0  0  0  0  0  0
    1.1688    3.3892    0.0087 F   0  0  0  0  0  0  0  0  0  0  0  0
   -0.9554    1.8938    0.0258 H   0  0  0  0  0  0  0  0  0  0  0  0
    3.5931    2.9429   -0.0172 H   0  0  0  0  0  0  0  0  0  0  0  0
    4.4018    1.4704   -0.0325 H   0  0  0  0  0  0  0  0  0  0  0  0
  1  7  1  0  0  0  0
  1  2  2  0  0  0  0
  1 11  1  0  0  0  0
  2  3  1  0  0  0  0
  2 10  1  0  0  0  0
  3  4  2  0  0  0  0
  3  9  1  0  0  0  0
  4  5  1  0  0  0  0
  5  6  2  0  0  0  0
  5  7  1  0  0  0  0
  7  8  1  0  0  0  0
  9 12  1  0  0  0  0
  9 13  1  0  0  0  0
M  END
$$$$
