ZINC03800475
 OpenBabel08292219463D

 61 63  0  0  1  0  0  0  0  0999 V2000
   -2.6283   15.2560   -0.4841 C   0  0  0  0  0  0  0  0  0  0  0  0
   -2.8213   13.8556   -1.0695 C   0  0  0  0  0  0  0  0  0  0  0  0
   -2.0703   12.8360   -0.2109 C   0  0  0  0  0  0  0  0  0  0  0  0
   -2.2633   11.4356   -0.7962 C   0  0  0  0  0  0  0  0  0  0  0  0
   -1.5122   10.4160    0.0623 C   0  0  0  0  0  0  0  0  0  0  0  0
   -1.7052    9.0156   -0.5230 C   0  0  1  0  0  0  0  0  0  0  0  0
   -1.3980    9.0135   -1.5688 H   0  0  0  0  0  0  0  0  0  0  0  0
   -0.8548    8.0137    0.2604 C   0  0  0  0  0  0  0  0  0  0  0  0
   -0.9501    6.6372   -0.4006 C   0  0  0  0  0  0  0  0  0  0  0  0
   -0.0996    5.6352    0.3829 C   0  0  2  0  0  0  0  0  0  0  0  0
    0.9169    6.0122    0.4956 H   0  0  0  0  0  0  0  0  0  0  0  0
   -0.0835    4.2593   -0.3469 C   0  0  1  0  0  0  0  0  0  0  0  0
   -0.1786    4.3398   -1.4298 H   0  0  0  0  0  0  0  0  0  0  0  0
    1.2207    3.5851    0.0796 C   0  0  0  0  0  0  0  0  0  0  0  0
    1.1661    2.0896    0.0021 C   0  0  0  0  0  0  0  0  0  0  0  0
    2.3715    1.3974   -0.0498 C   0  0  0  0  0  0  0  0  0  0  0  0
    2.3920    0.0186   -0.0701 C   0  0  0  0  0  0  0  0  0  0  0  0
    1.2051   -0.6881   -0.0381 C   0  0  0  0  0  0  0  0  0  0  0  0
    0.0021   -0.0041    0.0020 C   0  0  0  0  0  0  0  0  0  0  0  0
   -0.0168    1.3896    0.0097 C   0  0  0  0  0  0  0  0  0  0  0  0
   -1.3510    2.0779   -0.0078 C   0  0  0  0  0  0  0  0  0  0  0  0
   -1.2809    3.5407    0.3034 C   0  0  1  0  0  0  0  0  0  0  0  0
   -2.1962    4.0036   -0.0655 H   0  0  0  0  0  0  0  0  0  0  0  0
   -1.1375    3.8829    1.7929 C   0  0  0  0  0  0  0  0  0  0  0  0
   -0.7260    5.3756    1.7671 C   0  0  1  0  0  0  0  0  0  0  0  0
   -1.6034    6.0073    1.9052 H   0  0  0  0  0  0  0  0  0  0  0  0
    0.2319    5.6372    2.7948 O   0  0  0  0  0  0  0  0  0  0  0  0
   -1.1674   -0.6956    0.0346 O   0  0  0  0  0  0  0  0  0  0  0  0
   -1.0782   -2.1218    0.0246 C   0  0  0  0  0  0  0  0  0  0  0  0
   -2.4642   -2.7120    0.0644 C   0  0  0  0  0  0  0  0  0  0  0  0
   -3.4294   -1.9859    0.0979 O   0  0  0  0  0  0  0  0  0  0  0  0
   -3.0826    8.6463   -0.4305 O   0  0  0  0  0  0  0  0  0  0  0  0
   -3.0176   15.2811    0.5337 H   0  0  0  0  0  0  0  0  0  0  0  0
   -1.5665   15.5020   -0.4732 H   0  0  0  0  0  0  0  0  0  0  0  0
   -3.1634   15.9824   -1.0957 H   0  0  0  0  0  0  0  0  0  0  0  0
   -2.4321   13.8305   -2.0873 H   0  0  0  0  0  0  0  0  0  0  0  0
   -3.8831   13.6095   -1.0803 H   0  0  0  0  0  0  0  0  0  0  0  0
   -2.4595   12.8611    0.8070 H   0  0  0  0  0  0  0  0  0  0  0  0
   -1.0085   13.0821   -0.2000 H   0  0  0  0  0  0  0  0  0  0  0  0
   -1.8740   11.4105   -1.8141 H   0  0  0  0  0  0  0  0  0  0  0  0
   -3.3251   11.1895   -0.8071 H   0  0  0  0  0  0  0  0  0  0  0  0
   -1.9015   10.4411    1.0802 H   0  0  0  0  0  0  0  0  0  0  0  0
   -0.4504   10.6621    0.0732 H   0  0  0  0  0  0  0  0  0  0  0  0
   -1.2199    7.9506    1.2855 H   0  0  0  0  0  0  0  0  0  0  0  0
    0.1840    8.3437    0.2644 H   0  0  0  0  0  0  0  0  0  0  0  0
   -0.5850    6.7003   -1.4257 H   0  0  0  0  0  0  0  0  0  0  0  0
   -1.9889    6.3071   -0.4046 H   0  0  0  0  0  0  0  0  0  0  0  0
    1.4448    3.8744    1.1064 H   0  0  0  0  0  0  0  0  0  0  0  0
    2.0237    3.9400   -0.5664 H   0  0  0  0  0  0  0  0  0  0  0  0
    3.3016    1.9457   -0.0750 H   0  0  0  0  0  0  0  0  0  0  0  0
    3.3341   -0.5078   -0.1112 H   0  0  0  0  0  0  0  0  0  0  0  0
    1.2158   -1.7681   -0.0448 H   0  0  0  0  0  0  0  0  0  0  0  0
   -1.7939    1.9532   -0.9959 H   0  0  0  0  0  0  0  0  0  0  0  0
   -2.0001    1.5972    0.7242 H   0  0  0  0  0  0  0  0  0  0  0  0
   -2.0874    3.7535    2.3116 H   0  0  0  0  0  0  0  0  0  0  0  0
   -0.3588    3.2760    2.2549 H   0  0  0  0  0  0  0  0  0  0  0  0
   -0.0958    5.4714    3.6893 H   0  0  0  0  0  0  0  0  0  0  0  0
   -0.5704   -2.4477   -0.8831 H   0  0  0  0  0  0  0  0  0  0  0  0
   -0.5155   -2.4568    0.8959 H   0  0  0  0  0  0  0  0  0  0  0  0
   -3.4248    8.6272    0.4738 H   0  0  0  0  0  0  0  0  0  0  0  0
   -2.6266   -4.0445    0.0626 O   0  0  0  0  0  1  0  0  0  0  0  0
  1  2  1  0  0  0  0
  1 33  1  0  0  0  0
  1 34  1  0  0  0  0
  1 35  1  0  0  0  0
  2  3  1  0  0  0  0
  2 36  1  0  0  0  0
  2 37  1  0  0  0  0
  3  4  1  0  0  0  0
  3 38  1  0  0  0  0
  3 39  1  0  0  0  0
  4  5  1  0  0  0  0
  4 40  1  0  0  0  0
  4 41  1  0  0  0  0
  5  6  1  0  0  0  0
  5 42  1  0  0  0  0
  5 43  1  0  0  0  0
  6  7  1  6  0  0  0
  6  8  1  0  0  0  0
  6 32  1  0  0  0  0
  8  9  1  0  0  0  0
  8 44  1  0  0  0  0
  8 45  1  0  0  0  0
  9 10  1  0  0  0  0
  9 46  1  0  0  0  0
  9 47  1  0  0  0  0
 10 11  1  1  0  0  0
 10 25  1  0  0  0  0
 10 12  1  0  0  0  0
 12 13  1  6  0  0  0
 12 22  1  0  0  0  0
 12 14  1  0  0  0  0
 14 15  1  0  0  0  0
 14 48  1  0  0  0  0
 14 49  1  0  0  0  0
 15 20  2  0  0  0  0
 15 16  1  0  0  0  0
 16 17  2  0  0  0  0
 16 50  1  0  0  0  0
 17 18  1  0  0  0  0
 17 51  1  0  0  0  0
 18 19  2  0  0  0  0
 18 52  1  0  0  0  0
 19 20  1  0  0  0  0
 19 28  1  0  0  0  0
 20 21  1  0  0  0  0
 21 22  1  0  0  0  0
 21 53  1  0  0  0  0
 21 54  1  0  0  0  0
 22 23  1  6  0  0  0
 22 24  1  0  0  0  0
 24 25  1  0  0  0  0
 24 55  1  0  0  0  0
 24 56  1  0  0  0  0
 25 26  1  1  0  0  0
 25 27  1  0  0  0  0
 27 57  1  0  0  0  0
 28 29  1  0  0  0  0
 29 30  1  0  0  0  0
 29 58  1  0  0  0  0
 29 59  1  0  0  0  0
 30 31  2  0  0  0  0
 30 61  1  0  0  0  0
 32 60  1  0  0  0  0
M  END
$$$$
