ZINC05138063
 OpenBabel08292219463D

 62 66  0  0  1  0  0  0  0  0999 V2000
    0.3058   -1.5046   -3.6260 C   0  0  0  0  0  0  0  0  0  0  0  0
   -0.3884   -0.7216   -2.5414 C   0  0  0  0  0  0  0  0  0  0  0  0
   -1.5581   -0.4406   -2.6536 O   0  0  0  0  0  0  0  0  0  0  0  0
    0.2928   -0.3365   -1.4508 O   0  0  0  0  0  0  0  0  0  0  0  0
   -0.4379    0.4123   -0.4498 C   0  0  1  0  0  0  0  0  0  0  0  0
   -1.4864    0.1104   -0.4627 H   0  0  0  0  0  0  0  0  0  0  0  0
    0.1582    0.1327    0.9293 C   0  0  0  0  0  0  0  0  0  0  0  0
   -0.6356    0.8605    2.0118 C   0  0  0  0  0  0  0  0  0  0  0  0
   -0.6124    2.3718    1.7772 C   0  0  2  0  0  0  0  0  0  0  0  0
   -1.3897    3.1003    2.8431 C   0  0  2  0  0  0  0  0  0  0  0  0
   -0.6077    3.3405    3.5912 H   0  0  0  0  0  0  0  0  0  0  0  0
   -2.4049    2.2406    3.5897 C   0  0  0  0  0  0  0  0  0  0  0  0
   -2.6393    2.8423    4.9954 C   0  0  0  0  0  0  0  0  0  0  0  0
   -2.7109    4.3418    4.8711 C   0  0  1  0  0  0  0  0  0  0  0  0
   -3.1166    4.7349    3.4330 C   0  0  2  0  0  0  0  0  0  0  0  0
   -4.0391    4.2169    3.1259 H   0  0  0  0  0  0  0  0  0  0  0  0
   -2.0062    4.4306    2.4388 C   0  0  2  0  0  0  0  0  0  0  0  0
   -1.2605    5.2243    2.4430 H   0  0  0  0  0  0  0  0  0  0  0  0
   -2.6874    4.3480    1.0677 C   0  0  0  0  0  0  0  0  0  0  0  0
   -1.9185    3.5568    0.0670 C   0  0  0  0  0  0  0  0  0  0  0  0
   -1.0199    2.6707    0.3694 C   0  0  0  0  0  0  0  0  0  0  0  0
   -0.3397    1.9119   -0.7571 C   0  0  0  0  0  0  0  0  0  0  0  0
   -3.4077    6.2268    3.6794 C   0  0  0  0  0  0  0  0  0  0  0  0
   -4.1330    6.1598    5.0232 C   0  0  0  0  0  0  0  0  0  0  0  0
   -3.7591    5.0532    5.6868 C   0  0  0  0  0  0  0  0  0  0  0  0
   -4.2814    4.6122    6.9974 C   0  0  0  0  0  0  0  0  0  0  0  0
   -4.0536    5.3762    8.1477 C   0  0  0  0  0  0  0  0  0  0  0  0
   -4.5674    4.9216    9.3494 C   0  0  0  0  0  0  0  0  0  0  0  0
   -5.2752    3.7333    9.3768 C   0  0  0  0  0  0  0  0  0  0  0  0
   -5.4701    3.0314    8.2772 N   0  0  0  0  0  0  0  0  0  0  0  0
   -5.0046    3.4246    7.1095 C   0  0  0  0  0  0  0  0  0  0  0  0
   -1.3659    4.9610    5.2668 C   0  0  0  0  0  0  0  0  0  0  0  0
    0.8468    2.8325    1.9283 C   0  0  0  0  0  0  0  0  0  0  0  0
    1.3487   -1.6611   -3.3503 H   0  0  0  0  0  0  0  0  0  0  0  0
   -0.1862   -2.4694   -3.7493 H   0  0  0  0  0  0  0  0  0  0  0  0
    0.2571   -0.9495   -4.5628 H   0  0  0  0  0  0  0  0  0  0  0  0
    0.1063   -0.9459    1.1216 H   0  0  0  0  0  0  0  0  0  0  0  0
    1.2041    0.4306    0.9493 H   0  0  0  0  0  0  0  0  0  0  0  0
   -1.6693    0.5084    1.9987 H   0  0  0  0  0  0  0  0  0  0  0  0
   -0.1987    0.6442    2.9895 H   0  0  0  0  0  0  0  0  0  0  0  0
   -3.3488    2.2235    3.0440 H   0  0  0  0  0  0  0  0  0  0  0  0
   -2.0383    1.2205    3.6982 H   0  0  0  0  0  0  0  0  0  0  0  0
   -1.8219    2.5523    5.6620 H   0  0  0  0  0  0  0  0  0  0  0  0
   -3.5777    2.4465    5.3949 H   0  0  0  0  0  0  0  0  0  0  0  0
   -3.6798    3.8965    1.1906 H   0  0  0  0  0  0  0  0  0  0  0  0
   -2.8297    5.3646    0.6877 H   0  0  0  0  0  0  0  0  0  0  0  0
   -2.1219    3.7220   -0.9860 H   0  0  0  0  0  0  0  0  0  0  0  0
    0.7047    2.2037   -0.8326 H   0  0  0  0  0  0  0  0  0  0  0  0
   -0.8438    2.1222   -1.7024 H   0  0  0  0  0  0  0  0  0  0  0  0
   -2.4913    6.8067    3.7475 H   0  0  0  0  0  0  0  0  0  0  0  0
   -4.0650    6.6220    2.9037 H   0  0  0  0  0  0  0  0  0  0  0  0
   -4.8556    6.8769    5.3775 H   0  0  0  0  0  0  0  0  0  0  0  0
   -3.4943    6.2987    8.0981 H   0  0  0  0  0  0  0  0  0  0  0  0
   -4.4145    5.4867   10.2569 H   0  0  0  0  0  0  0  0  0  0  0  0
   -5.6744    3.3743   10.3139 H   0  0  0  0  0  0  0  0  0  0  0  0
   -5.1847    2.8226    6.2311 H   0  0  0  0  0  0  0  0  0  0  0  0
   -1.4702    6.0439    5.3340 H   0  0  0  0  0  0  0  0  0  0  0  0
   -1.0540    4.5653    6.2333 H   0  0  0  0  0  0  0  0  0  0  0  0
   -0.6169    4.7142    4.5143 H   0  0  0  0  0  0  0  0  0  0  0  0
    0.9131    3.9016    1.7263 H   0  0  0  0  0  0  0  0  0  0  0  0
    1.1875    2.6330    2.9443 H   0  0  0  0  0  0  0  0  0  0  0  0
    1.4743    2.2896    1.2215 H   0  0  0  0  0  0  0  0  0  0  0  0
  1  2  1  0  0  0  0
  1 34  1  0  0  0  0
  1 35  1  0  0  0  0
  1 36  1  0  0  0  0
  2  3  2  0  0  0  0
  2  4  1  0  0  0  0
  4  5  1  0  0  0  0
  5  6  1  6  0  0  0
  5 22  1  0  0  0  0
  5  7  1  0  0  0  0
  7  8  1  0  0  0  0
  7 37  1  0  0  0  0
  7 38  1  0  0  0  0
  8  9  1  0  0  0  0
  8 39  1  0  0  0  0
  8 40  1  0  0  0  0
  9 21  1  0  0  0  0
  9 10  1  0  0  0  0
  9 33  1  1  0  0  0
 10 11  1  1  0  0  0
 10 17  1  0  0  0  0
 10 12  1  0  0  0  0
 12 13  1  0  0  0  0
 12 41  1  0  0  0  0
 12 42  1  0  0  0  0
 13 14  1  0  0  0  0
 13 43  1  0  0  0  0
 13 44  1  0  0  0  0
 14 25  1  0  0  0  0
 14 15  1  0  0  0  0
 14 32  1  1  0  0  0
 15 16  1  6  0  0  0
 15 17  1  0  0  0  0
 15 23  1  0  0  0  0
 17 18  1  1  0  0  0
 17 19  1  0  0  0  0
 19 20  1  0  0  0  0
 19 45  1  0  0  0  0
 19 46  1  0  0  0  0
 20 21  2  0  0  0  0
 20 47  1  0  0  0  0
 21 22  1  0  0  0  0
 22 48  1  0  0  0  0
 22 49  1  0  0  0  0
 23 24  1  0  0  0  0
 23 50  1  0  0  0  0
 23 51  1  0  0  0  0
 24 25  2  0  0  0  0
 24 52  1  0  0  0  0
 25 26  1  0  0  0  0
 26 31  2  0  0  0  0
 26 27  1  0  0  0  0
 27 28  2  0  0  0  0
 27 53  1  0  0  0  0
 28 29  1  0  0  0  0
 28 54  1  0  0  0  0
 29 30  2  0  0  0  0
 29 55  1  0  0  0  0
 30 31  1  0  0  0  0
 31 56  1  0  0  0  0
 32 57  1  0  0  0  0
 32 58  1  0  0  0  0
 32 59  1  0  0  0  0
 33 60  1  0  0  0  0
 33 61  1  0  0  0  0
 33 62  1  0  0  0  0
M  END
$$$$
