ZINC00057439
 OpenBabel08292219463D

 54 56  0  0  1  0  0  0  0  0999 V2000
    3.9107   -1.7416   -1.6435 C   0  0  0  0  0  0  0  0  0  0  0  0
    4.1525   -0.2968   -1.6632 N   0  0  0  0  0  0  0  0  0  0  0  0
    5.4434    0.2427   -2.1213 C   0  0  0  0  0  0  0  0  0  0  0  0
    5.8322    1.3728   -1.1558 C   0  0  0  0  0  0  0  0  0  0  0  0
    4.7306    2.4348   -1.1879 C   0  0  0  0  0  0  0  0  0  0  0  0
    3.1797    0.5788   -1.2599 C   0  0  0  0  0  0  0  0  0  0  0  0
    1.7754    0.0653   -1.0721 C   0  0  0  0  0  0  0  0  0  0  0  0
    0.9162    1.1530   -0.6394 O   0  0  0  0  0  0  0  0  0  0  0  0
   -0.3763    0.8605   -0.4257 C   0  0  0  0  0  0  0  0  0  0  0  0
   -0.7765   -0.2670   -0.5946 O   0  0  0  0  0  0  0  0  0  0  0  0
   -1.3295    1.9397    0.0189 C   0  0  2  0  0  0  0  0  0  0  0  0
   -2.4885    1.3154    0.7523 C   0  0  0  0  0  0  0  0  0  0  0  0
   -3.7773    1.7508    0.5065 C   0  0  0  0  0  0  0  0  0  0  0  0
   -4.8409    1.1751    1.1760 C   0  0  0  0  0  0  0  0  0  0  0  0
   -4.6148    0.1701    2.0979 C   0  0  0  0  0  0  0  0  0  0  0  0
   -3.3256   -0.2617    2.3475 C   0  0  0  0  0  0  0  0  0  0  0  0
   -2.2624    0.3110    1.6748 C   0  0  0  0  0  0  0  0  0  0  0  0
   -1.8488    2.6973   -1.2048 C   0  0  0  0  0  0  0  0  0  0  0  0
   -2.5238    1.7151   -2.1641 C   0  0  0  0  0  0  0  0  0  0  0  0
   -3.0430    2.4727   -3.3878 C   0  0  0  0  0  0  0  0  0  0  0  0
   -1.8734    3.1570   -4.0981 C   0  0  0  0  0  0  0  0  0  0  0  0
   -1.1984    4.1393   -3.1387 C   0  0  0  0  0  0  0  0  0  0  0  0
   -0.6791    3.3817   -1.9151 C   0  0  0  0  0  0  0  0  0  0  0  0
   -0.6494    2.8476    0.8879 O   0  0  0  0  0  0  0  0  0  0  0  0
    2.9022   -1.9363   -1.2787 H   0  0  0  0  0  0  0  0  0  0  0  0
    4.0158   -2.1414   -2.6520 H   0  0  0  0  0  0  0  0  0  0  0  0
    4.6343   -2.2221   -0.9850 H   0  0  0  0  0  0  0  0  0  0  0  0
    5.3465    0.6365   -3.1331 H   0  0  0  0  0  0  0  0  0  0  0  0
    6.2010   -0.5406   -2.0994 H   0  0  0  0  0  0  0  0  0  0  0  0
    6.7778    1.8149   -1.4698 H   0  0  0  0  0  0  0  0  0  0  0  0
    5.9302    0.9758   -0.1454 H   0  0  0  0  0  0  0  0  0  0  0  0
    4.7677    2.9626   -2.1409 H   0  0  0  0  0  0  0  0  0  0  0  0
    4.8926    3.1455   -0.3775 H   0  0  0  0  0  0  0  0  0  0  0  0
    1.7740   -0.7211   -0.3173 H   0  0  0  0  0  0  0  0  0  0  0  0
    1.4060   -0.3360   -2.0158 H   0  0  0  0  0  0  0  0  0  0  0  0
   -3.9535    2.5386   -0.2110 H   0  0  0  0  0  0  0  0  0  0  0  0
   -5.8481    1.5122    0.9808 H   0  0  0  0  0  0  0  0  0  0  0  0
   -5.4455   -0.2779    2.6230 H   0  0  0  0  0  0  0  0  0  0  0  0
   -3.1490   -1.0469    3.0677 H   0  0  0  0  0  0  0  0  0  0  0  0
   -1.2552   -0.0264    1.8698 H   0  0  0  0  0  0  0  0  0  0  0  0
   -2.5710    3.4493   -0.8870 H   0  0  0  0  0  0  0  0  0  0  0  0
   -1.8015    0.9631   -2.4819 H   0  0  0  0  0  0  0  0  0  0  0  0
   -3.3570    1.2275   -1.6581 H   0  0  0  0  0  0  0  0  0  0  0  0
   -3.7653    3.2246   -3.0700 H   0  0  0  0  0  0  0  0  0  0  0  0
   -3.5239    1.7729   -4.0713 H   0  0  0  0  0  0  0  0  0  0  0  0
   -2.2433    3.6968   -4.9698 H   0  0  0  0  0  0  0  0  0  0  0  0
   -1.1511    2.4051   -4.4158 H   0  0  0  0  0  0  0  0  0  0  0  0
   -1.9207    4.8912   -2.8209 H   0  0  0  0  0  0  0  0  0  0  0  0
   -0.3651    4.6269   -3.6447 H   0  0  0  0  0  0  0  0  0  0  0  0
   -0.1982    4.0815   -1.2316 H   0  0  0  0  0  0  0  0  0  0  0  0
    0.0432    2.6298   -2.2328 H   0  0  0  0  0  0  0  0  0  0  0  0
   -0.2928    2.4351    1.6866 H   0  0  0  0  0  0  0  0  0  0  0  0
    3.3433    1.8707   -1.0014 N   0  0  0  0  0  4  0  0  0  0  0  0
    2.5620    2.4590   -0.6891 H   0  0  0  0  0  0  0  0  0  0  0  0
  1  2  1  0  0  0  0
  1 25  1  0  0  0  0
  1 26  1  0  0  0  0
  1 27  1  0  0  0  0
  2  6  1  0  0  0  0
  2  3  1  0  0  0  0
  3  4  1  0  0  0  0
  3 28  1  0  0  0  0
  3 29  1  0  0  0  0
  4  5  1  0  0  0  0
  4 30  1  0  0  0  0
  4 31  1  0  0  0  0
  5 32  1  0  0  0  0
  5 33  1  0  0  0  0
  5 53  1  0  0  0  0
  6  7  1  0  0  0  0
  6 53  2  0  0  0  0
  7  8  1  0  0  0  0
  7 34  1  0  0  0  0
  7 35  1  0  0  0  0
  8  9  1  0  0  0  0
  9 10  2  0  0  0  0
 11  9  1  6  0  0  0
 11 12  1  0  0  0  0
 11 18  1  0  0  0  0
 11 24  1  0  0  0  0
 12 17  2  0  0  0  0
 12 13  1  0  0  0  0
 13 14  2  0  0  0  0
 13 36  1  0  0  0  0
 14 15  1  0  0  0  0
 14 37  1  0  0  0  0
 15 16  2  0  0  0  0
 15 38  1  0  0  0  0
 16 17  1  0  0  0  0
 16 39  1  0  0  0  0
 17 40  1  0  0  0  0
 18 23  1  0  0  0  0
 18 19  1  0  0  0  0
 18 41  1  0  0  0  0
 19 20  1  0  0  0  0
 19 42  1  0  0  0  0
 19 43  1  0  0  0  0
 20 21  1  0  0  0  0
 20 44  1  0  0  0  0
 20 45  1  0  0  0  0
 21 22  1  0  0  0  0
 21 46  1  0  0  0  0
 21 47  1  0  0  0  0
 22 23  1  0  0  0  0
 22 48  1  0  0  0  0
 22 49  1  0  0  0  0
 23 50  1  0  0  0  0
 23 51  1  0  0  0  0
 24 52  1  0  0  0  0
 53 54  1  0  0  0  0
M  END
$$$$
