ZINC03831001
 OpenBabel08292219463D

 52 55  0  0  1  0  0  0  0  0999 V2000
   -0.0187    1.5258    0.0104 C   0  0  0  0  0  0  0  0  0  0  0  0
    0.0021   -0.0041    0.0020 C   0  0  0  0  0  0  0  0  0  0  0  0
    0.6878   -0.4765   -1.2033 N   0  0  0  0  0  0  0  0  0  0  0  0
    2.1353   -0.7012   -1.1821 C   0  0  0  0  0  0  0  0  0  0  0  0
    2.4212   -2.1448   -0.7635 C   0  0  0  0  0  0  0  0  0  0  0  0
   -0.0130   -0.7045   -2.3317 C   0  0  0  0  0  0  0  0  0  0  0  0
    0.5561   -1.0966   -3.3321 O   0  0  0  0  0  0  0  0  0  0  0  0
   -1.3447   -0.4978   -2.3513 N   0  0  0  0  0  0  0  0  0  0  0  0
   -2.1065   -0.7456   -3.5779 C   0  0  2  0  0  0  0  0  0  0  0  0
   -1.5023   -0.4816   -4.4458 H   0  0  0  0  0  0  0  0  0  0  0  0
   -3.3908    0.0918   -3.5675 C   0  0  0  0  0  0  0  0  0  0  0  0
   -4.2164   -0.3379   -2.4363 N   0  3  2  0  0  0  0  0  0  0  0  0
   -4.6949   -1.7034   -2.6031 C   0  0  2  0  0  0  0  0  0  0  0  0
   -5.5280   -1.6631   -3.3048 H   0  0  0  0  0  0  0  0  0  0  0  0
   -5.2593   -2.2146   -1.2701 C   0  0  0  0  0  0  0  0  0  0  0  0
   -5.6437   -3.6640   -1.4108 C   0  0  0  0  0  0  0  0  0  0  0  0
   -6.5028   -4.4739   -0.8008 C   0  0  0  0  0  0  0  0  0  0  0  0
   -6.4318   -5.7476   -1.3436 N   0  0  0  0  0  0  0  0  0  0  0  0
   -6.9673   -6.5030   -1.0545 H   0  0  0  0  0  0  0  0  0  0  0  0
   -5.5045   -5.7885   -2.3405 C   0  0  0  0  0  0  0  0  0  0  0  0
   -4.9891   -4.4916   -2.4172 C   0  0  0  0  0  0  0  0  0  0  0  0
   -4.0043   -4.0526   -3.3265 C   0  0  0  0  0  0  0  0  0  0  0  0
   -3.5168   -5.0121   -4.1844 C   0  0  0  0  0  0  0  0  0  0  0  0
   -4.0104   -6.3133   -4.1177 C   0  0  0  0  0  0  0  0  0  0  0  0
   -4.9900   -6.7346   -3.2260 C   0  0  0  0  0  0  0  0  0  0  0  0
   -3.6630   -2.6236   -3.1980 C   0  0  0  0  0  0  0  0  0  0  0  0
   -2.4935   -2.1989   -3.6509 C   0  0  0  0  0  0  0  0  0  0  0  0
   -5.3709    0.5626   -2.3173 C   0  0  0  0  0  0  0  0  0  0  0  0
    1.0039    1.9031    0.0027 H   0  0  0  0  0  0  0  0  0  0  0  0
   -0.5459    1.8868   -0.8726 H   0  0  0  0  0  0  0  0  0  0  0  0
   -0.5289    1.8773    0.9072 H   0  0  0  0  0  0  0  0  0  0  0  0
    0.5293   -0.3651    0.8851 H   0  0  0  0  0  0  0  0  0  0  0  0
   -1.0205   -0.3814    0.0098 H   0  0  0  0  0  0  0  0  0  0  0  0
    2.5453   -0.5232   -2.1762 H   0  0  0  0  0  0  0  0  0  0  0  0
    2.5986   -0.0180   -0.4703 H   0  0  0  0  0  0  0  0  0  0  0  0
    1.9579   -2.8280   -1.4752 H   0  0  0  0  0  0  0  0  0  0  0  0
    3.4982   -2.3119   -0.7477 H   0  0  0  0  0  0  0  0  0  0  0  0
    2.0113   -2.3228    0.2307 H   0  0  0  0  0  0  0  0  0  0  0  0
   -1.7987   -0.1850   -1.5532 H   0  0  0  0  0  0  0  0  0  0  0  0
   -3.1394    1.1467   -3.4575 H   0  0  0  0  0  0  0  0  0  0  0  0
   -3.9362   -0.0626   -4.4985 H   0  0  0  0  0  0  0  0  0  0  0  0
   -4.5025   -2.1133   -0.4923 H   0  0  0  0  0  0  0  0  0  0  0  0
   -6.1387   -1.6301   -0.9997 H   0  0  0  0  0  0  0  0  0  0  0  0
   -7.1619   -4.1816    0.0032 H   0  0  0  0  0  0  0  0  0  0  0  0
   -2.7550   -4.7574   -4.9064 H   0  0  0  0  0  0  0  0  0  0  0  0
   -3.6057   -7.0422   -4.8042 H   0  0  0  0  0  0  0  0  0  0  0  0
   -5.3392   -7.7566   -3.2191 H   0  0  0  0  0  0  0  0  0  0  0  0
   -1.7984   -2.9107   -4.0711 H   0  0  0  0  0  0  0  0  0  0  0  0
   -5.9572    0.5249   -3.2354 H   0  0  0  0  0  0  0  0  0  0  0  0
   -5.9908    0.2495   -1.4772 H   0  0  0  0  0  0  0  0  0  0  0  0
   -5.0214    1.5815   -2.1510 H   0  0  0  0  0  0  0  0  0  0  0  0
   -3.6693   -0.2823   -1.5903 H   0  0  0  0  0  0  0  0  0  0  0  0
  1  2  1  0  0  0  0
  1 29  1  0  0  0  0
  1 30  1  0  0  0  0
  1 31  1  0  0  0  0
  2  3  1  0  0  0  0
  2 32  1  0  0  0  0
  2 33  1  0  0  0  0
  3  4  1  0  0  0  0
  3  6  1  0  0  0  0
  4  5  1  0  0  0  0
  4 34  1  0  0  0  0
  4 35  1  0  0  0  0
  5 36  1  0  0  0  0
  5 37  1  0  0  0  0
  5 38  1  0  0  0  0
  6  7  2  0  0  0  0
  6  8  1  0  0  0  0
  8  9  1  0  0  0  0
  8 39  1  0  0  0  0
  9 10  1  6  0  0  0
  9 27  1  0  0  0  0
  9 11  1  0  0  0  0
 11 12  1  0  0  0  0
 11 40  1  0  0  0  0
 11 41  1  0  0  0  0
 12 13  1  0  0  0  0
 12 28  1  0  0  0  0
 12 52  1  1  0  0  0
 13 14  1  6  0  0  0
 13 26  1  0  0  0  0
 13 15  1  0  0  0  0
 15 16  1  0  0  0  0
 15 42  1  0  0  0  0
 15 43  1  0  0  0  0
 16 21  1  0  0  0  0
 16 17  2  0  0  0  0
 17 18  1  0  0  0  0
 17 44  1  0  0  0  0
 18 19  1  0  0  0  0
 18 20  1  0  0  0  0
 20 25  2  0  0  0  0
 20 21  1  0  0  0  0
 21 22  2  0  0  0  0
 22 23  1  0  0  0  0
 22 26  1  0  0  0  0
 23 24  2  0  0  0  0
 23 45  1  0  0  0  0
 24 25  1  0  0  0  0
 24 46  1  0  0  0  0
 25 47  1  0  0  0  0
 26 27  2  0  0  0  0
 27 48  1  0  0  0  0
 28 49  1  0  0  0  0
 28 50  1  0  0  0  0
 28 51  1  0  0  0  0
M  CHG  1  12   1
M  END
$$$$
