ZINC13523046
 OpenBabel08292219463D

 48 51  0  0  1  0  0  0  0  0999 V2000
   -6.0332    0.3087   -2.7484 C   0  0  0  0  0  0  0  0  0  0  0  0
   -6.2936    1.5206   -3.6816 C   0  0  0  0  0  0  0  0  0  0  0  0
   -4.8950    2.1578   -3.8225 C   0  0  2  0  0  0  0  0  0  0  0  0
   -4.4271    1.8197   -4.7471 H   0  0  0  0  0  0  0  0  0  0  0  0
   -4.0970    1.7183   -2.6686 N   0  0  0  0  0  0  0  0  0  0  0  0
   -4.9403    0.8713   -1.8056 C   0  0  0  0  0  0  0  0  0  0  0  0
   -2.8094    2.0412   -2.4353 C   0  0  0  0  0  0  0  0  0  0  0  0
   -2.2105    2.7490   -3.2171 O   0  0  0  0  0  0  0  0  0  0  0  0
   -2.1139    1.5227   -1.2030 C   0  0  0  0  0  0  0  0  0  0  0  0
   -0.0187    1.5258    0.0104 C   0  0  2  0  0  0  0  0  0  0  0  0
    0.0021   -0.0041    0.0020 C   0  0  0  0  0  0  0  0  0  0  0  0
    0.7421   -0.5109    1.2415 C   0  0  1  0  0  0  0  0  0  0  0  0
    0.7568   -1.6008    1.2356 H   0  0  0  0  0  0  0  0  0  0  0  0
    2.1775    0.0187    1.2307 C   0  0  0  0  0  0  0  0  0  0  0  0
    2.1567    1.5485    1.2391 C   0  0  1  0  0  0  0  0  0  0  0  0
    3.1793    1.9258    1.2314 H   0  0  0  0  0  0  0  0  0  0  0  0
    1.4167    2.0553   -0.0004 C   0  0  0  0  0  0  0  0  0  0  0  0
    1.4406    2.0419    2.4979 C   0  0  0  0  0  0  0  0  0  0  0  0
    0.0052    1.5124    2.5088 C   0  0  2  0  0  0  0  0  0  0  0  0
    0.0259   -0.0175    2.5003 C   0  0  0  0  0  0  0  0  0  0  0  0
   -0.7348    2.0192    1.2692 C   0  0  0  0  0  0  0  0  0  0  0  0
   -0.6637    1.9732    3.6845 O   0  0  0  0  0  0  0  0  0  0  0  0
   -5.0083    3.6254   -3.8231 C   0  0  0  0  0  0  0  0  0  0  0  0
   -5.0958    4.7580   -3.8236 N   0  0  0  0  0  0  0  0  0  0  0  0
   -5.6601   -0.5459   -3.3128 H   0  0  0  0  0  0  0  0  0  0  0  0
   -6.9319    0.0446   -2.1910 H   0  0  0  0  0  0  0  0  0  0  0  0
   -6.6679    1.1883   -4.6499 H   0  0  0  0  0  0  0  0  0  0  0  0
   -6.9903    2.2202   -3.2198 H   0  0  0  0  0  0  0  0  0  0  0  0
   -4.3516    0.0588   -1.3798 H   0  0  0  0  0  0  0  0  0  0  0  0
   -5.3914    1.4680   -1.0128 H   0  0  0  0  0  0  0  0  0  0  0  0
   -2.1137    0.4328   -1.2174 H   0  0  0  0  0  0  0  0  0  0  0  0
   -2.6387    1.8742   -0.3146 H   0  0  0  0  0  0  0  0  0  0  0  0
   -1.0205   -0.3814    0.0098 H   0  0  0  0  0  0  0  0  0  0  0  0
    0.5123   -0.3556   -0.8948 H   0  0  0  0  0  0  0  0  0  0  0  0
    2.7046   -0.3424    2.1137 H   0  0  0  0  0  0  0  0  0  0  0  0
    2.6876   -0.3328    0.3339 H   0  0  0  0  0  0  0  0  0  0  0  0
    1.9269    1.7038   -0.8972 H   0  0  0  0  0  0  0  0  0  0  0  0
    1.4019    3.1452    0.0056 H   0  0  0  0  0  0  0  0  0  0  0  0
    1.9677    1.6809    3.3810 H   0  0  0  0  0  0  0  0  0  0  0  0
    1.4258    3.1318    2.5039 H   0  0  0  0  0  0  0  0  0  0  0  0
   -0.9967   -0.3948    2.5081 H   0  0  0  0  0  0  0  0  0  0  0  0
    0.5531   -0.3786    3.3834 H   0  0  0  0  0  0  0  0  0  0  0  0
   -0.7496    3.1091    1.2752 H   0  0  0  0  0  0  0  0  0  0  0  0
   -1.7574    1.6419    1.2770 H   0  0  0  0  0  0  0  0  0  0  0  0
   -0.7143    2.9362    3.7562 H   0  0  0  0  0  0  0  0  0  0  0  0
   -0.7249    2.0187   -1.1872 N   0  3  0  0  0  0  0  0  0  0  0  0
   -0.7319    3.0454   -1.1777 H   0  0  0  0  0  0  0  0  0  0  0  0
   -0.2374    1.6876   -2.0280 H   0  0  0  0  0  0  0  0  0  0  0  0
  1  6  1  0  0  0  0
  1  2  1  0  0  0  0
  1 25  1  0  0  0  0
  1 26  1  0  0  0  0
  2  3  1  0  0  0  0
  2 27  1  0  0  0  0
  2 28  1  0  0  0  0
  3  4  1  6  0  0  0
  3  5  1  0  0  0  0
  3 23  1  0  0  0  0
  5  6  1  0  0  0  0
  5  7  1  0  0  0  0
  6 29  1  0  0  0  0
  6 30  1  0  0  0  0
  7  8  2  0  0  0  0
  7  9  1  0  0  0  0
  9 31  1  0  0  0  0
  9 32  1  0  0  0  0
  9 46  1  0  0  0  0
 10 17  1  0  0  0  0
 10 21  1  0  0  0  0
 10 11  1  0  0  0  0
 10 46  1  6  0  0  0
 11 12  1  0  0  0  0
 11 33  1  0  0  0  0
 11 34  1  0  0  0  0
 12 13  1  6  0  0  0
 12 20  1  0  0  0  0
 12 14  1  0  0  0  0
 14 15  1  0  0  0  0
 14 35  1  0  0  0  0
 14 36  1  0  0  0  0
 15 16  1  6  0  0  0
 15 17  1  0  0  0  0
 15 18  1  0  0  0  0
 17 37  1  0  0  0  0
 17 38  1  0  0  0  0
 18 19  1  0  0  0  0
 18 39  1  0  0  0  0
 18 40  1  0  0  0  0
 19 20  1  0  0  0  0
 19 21  1  0  0  0  0
 19 22  1  1  0  0  0
 20 41  1  0  0  0  0
 20 42  1  0  0  0  0
 21 43  1  0  0  0  0
 21 44  1  0  0  0  0
 22 45  1  0  0  0  0
 23 24  3  0  0  0  0
 46 47  1  0  0  0  0
 46 48  1  0  0  0  0
M  CHG  1  46   1
M  END
$$$$
