ZINC00896873
 OpenBabel08292219463D

 29 30  0  0  1  0  0  0  0  0999 V2000
   -0.0187    1.5258    0.0104 C   0  0  0  0  0  0  0  0  0  0  0  0
    0.0021   -0.0041    0.0020 C   0  0  2  0  0  0  0  0  0  0  0  0
    0.5122   -0.3559   -0.8947 H   0  0  0  0  0  0  0  0  0  0  0  0
   -1.4338   -0.5343    0.0138 C   0  0  1  0  0  0  0  0  0  0  0  0
   -1.4201   -1.6232   -0.0327 H   0  0  0  0  0  0  0  0  0  0  0  0
   -2.0811   -0.1158    1.2187 O   0  0  0  0  0  0  0  0  0  0  0  0
   -1.4134   -0.5462    2.4081 C   0  0  0  0  0  0  0  0  0  0  0  0
    0.0225   -0.0160    2.4008 C   0  0  0  0  0  0  0  0  0  0  0  0
    0.7119   -0.4912    1.1928 N   0  3  0  0  0  0  0  0  0  0  0  0
   -2.1814    0.0109   -1.1757 C   0  0  0  0  0  0  0  0  0  0  0  0
   -2.6875    1.2968   -1.1439 C   0  0  0  0  0  0  0  0  0  0  0  0
   -3.3733    1.7969   -2.2350 C   0  0  0  0  0  0  0  0  0  0  0  0
   -3.5525    1.0112   -3.3581 C   0  0  0  0  0  0  0  0  0  0  0  0
   -3.0456   -0.2745   -3.3903 C   0  0  0  0  0  0  0  0  0  0  0  0
   -2.3562   -0.7730   -2.3008 C   0  0  0  0  0  0  0  0  0  0  0  0
    1.0039    1.9031    0.0027 H   0  0  0  0  0  0  0  0  0  0  0  0
   -0.5459    1.8868   -0.8726 H   0  0  0  0  0  0  0  0  0  0  0  0
   -0.5289    1.8773    0.9072 H   0  0  0  0  0  0  0  0  0  0  0  0
   -1.9396   -0.1599    3.2810 H   0  0  0  0  0  0  0  0  0  0  0  0
   -1.3990   -1.6355    2.4436 H   0  0  0  0  0  0  0  0  0  0  0  0
    0.0077    1.0739    2.4059 H   0  0  0  0  0  0  0  0  0  0  0  0
    0.5480   -0.3769    3.2849 H   0  0  0  0  0  0  0  0  0  0  0  0
    0.7246   -1.5001    1.1877 H   0  0  0  0  0  0  0  0  0  0  0  0
   -2.5475    1.9107   -0.2664 H   0  0  0  0  0  0  0  0  0  0  0  0
   -3.7693    2.8014   -2.2098 H   0  0  0  0  0  0  0  0  0  0  0  0
   -4.0889    1.4016   -4.2103 H   0  0  0  0  0  0  0  0  0  0  0  0
   -3.1860   -0.8885   -4.2676 H   0  0  0  0  0  0  0  0  0  0  0  0
   -1.9569   -1.7762   -2.3273 H   0  0  0  0  0  0  0  0  0  0  0  0
    1.6588   -0.1427    1.1861 H   0  0  0  0  0  0  0  0  0  0  0  0
  1  2  1  0  0  0  0
  1 16  1  0  0  0  0
  1 17  1  0  0  0  0
  1 18  1  0  0  0  0
  2  3  1  6  0  0  0
  2  9  1  0  0  0  0
  2  4  1  0  0  0  0
  4  5  1  6  0  0  0
  4  6  1  0  0  0  0
  4 10  1  0  0  0  0
  6  7  1  0  0  0  0
  7  8  1  0  0  0  0
  7 19  1  0  0  0  0
  7 20  1  0  0  0  0
  8  9  1  0  0  0  0
  8 21  1  0  0  0  0
  8 22  1  0  0  0  0
  9 23  1  0  0  0  0
  9 29  1  0  0  0  0
 10 15  2  0  0  0  0
 10 11  1  0  0  0  0
 11 12  2  0  0  0  0
 11 24  1  0  0  0  0
 12 13  1  0  0  0  0
 12 25  1  0  0  0  0
 13 14  2  0  0  0  0
 13 26  1  0  0  0  0
 14 15  1  0  0  0  0
 14 27  1  0  0  0  0
 15 28  1  0  0  0  0
M  CHG  1   9   1
M  END
$$$$
