ZINC01482077
 OpenBabel08292219463D

 69 72  0  0  0  0  0  0  0  0999 V2000
   -0.0187    1.5258    0.0104 C   0  0  0  0  0  0  0  0  0  0  0  0
    0.0021   -0.0041    0.0020 C   0  0  0  0  0  0  0  0  0  0  0  0
    0.5420   -0.4531   -1.3356 C   0  0  0  0  0  0  0  0  0  0  0  0
   -0.0617   -0.0836   -2.5137 C   0  0  0  0  0  0  0  0  0  0  0  0
    0.4622   -0.5142   -3.7210 C   0  0  0  0  0  0  0  0  0  0  0  0
    1.5949   -1.3171   -3.7444 C   0  0  0  0  0  0  0  0  0  0  0  0
    2.2089   -1.6936   -2.5612 C   0  0  0  0  0  0  0  0  0  0  0  0
    1.6831   -1.2617   -1.3442 C   0  0  0  0  0  0  0  0  0  0  0  0
    2.3134   -1.6439   -0.0676 C   0  0  0  0  0  0  0  0  0  0  0  0
    3.3043   -2.3468   -0.0893 O   0  0  0  0  0  0  0  0  0  0  0  0
    1.8305   -1.2417    1.1162 N   0  0  0  0  0  0  0  0  0  0  0  0
    0.7403   -0.4653    1.2399 C   0  0  0  0  0  0  0  0  0  0  0  0
    0.3508   -0.1343    2.3392 O   0  0  0  0  0  0  0  0  0  0  0  0
    2.5231   -1.6704    2.3339 C   0  0  0  0  0  0  0  0  0  0  0  0
    3.5972   -0.6435    2.6981 C   0  0  0  0  0  0  0  0  0  0  0  0
    4.3096   -1.0844    3.9507 C   0  0  0  0  0  0  0  0  0  0  0  0
    3.8363   -0.6933    5.1892 C   0  0  0  0  0  0  0  0  0  0  0  0
    4.4898   -1.0977    6.3382 C   0  0  0  0  0  0  0  0  0  0  0  0
    5.6164   -1.8938    6.2487 C   0  0  0  0  0  0  0  0  0  0  0  0
    6.0892   -2.2857    5.0103 C   0  0  0  0  0  0  0  0  0  0  0  0
    5.4332   -1.8848    3.8615 C   0  0  0  0  0  0  0  0  0  0  0  0
    6.4500   -2.4084    7.7133 S   0  0  0  0  0  0  0  0  0  0  0  0
    7.7904   -2.6948    7.3383 O   0  0  0  0  0  0  0  0  0  0  0  0
    6.1269   -1.4586    8.7196 O   0  0  0  0  0  0  0  0  0  0  0  0
    5.7728   -3.8447    8.1831 N   0  0  0  0  0  0  0  0  0  0  0  0
    6.2075   -4.4509    9.2490 C   0  0  0  0  0  0  0  0  0  0  0  0
    7.2112   -3.9087    9.9726 O   0  5  0  0  0  0  0  0  0  0  0  0
    5.6458   -5.6421    9.6387 N   0  0  0  0  0  0  0  0  0  0  0  0
    6.1352   -6.3247   10.8390 C   0  0  0  0  0  0  0  0  0  0  0  0
    7.3490   -7.1835   10.4782 C   0  0  0  0  0  0  0  0  0  0  0  0
    7.8601   -7.8964   11.7318 C   0  0  0  0  0  0  0  0  0  0  0  0
    6.7539   -8.7891   12.2976 C   0  0  0  0  0  0  0  0  0  0  0  0
    5.5401   -7.9303   12.6584 C   0  0  0  0  0  0  0  0  0  0  0  0
    5.0290   -7.2174   11.4049 C   0  0  0  0  0  0  0  0  0  0  0  0
    2.1031   -1.7357   -4.9334 O   0  0  0  0  0  0  0  0  0  0  0  0
    1.4213   -1.3117   -6.1156 C   0  0  0  0  0  0  0  0  0  0  0  0
   -1.4449   -0.4892    0.1102 C   0  0  0  0  0  0  0  0  0  0  0  0
    1.0039    1.9031    0.0027 H   0  0  0  0  0  0  0  0  0  0  0  0
   -0.5459    1.8868   -0.8726 H   0  0  0  0  0  0  0  0  0  0  0  0
   -0.5289    1.8773    0.9072 H   0  0  0  0  0  0  0  0  0  0  0  0
   -0.9427    0.5409   -2.4979 H   0  0  0  0  0  0  0  0  0  0  0  0
   -0.0114   -0.2244   -4.6473 H   0  0  0  0  0  0  0  0  0  0  0  0
    3.0896   -2.3184   -2.5812 H   0  0  0  0  0  0  0  0  0  0  0  0
    1.8058   -1.7510    3.1506 H   0  0  0  0  0  0  0  0  0  0  0  0
    2.9905   -2.6403    2.1638 H   0  0  0  0  0  0  0  0  0  0  0  0
    4.3145   -0.5628    1.8814 H   0  0  0  0  0  0  0  0  0  0  0  0
    3.1298    0.3264    2.8682 H   0  0  0  0  0  0  0  0  0  0  0  0
    2.9561   -0.0713    5.2590 H   0  0  0  0  0  0  0  0  0  0  0  0
    4.1204   -0.7915    7.3057 H   0  0  0  0  0  0  0  0  0  0  0  0
    6.9696   -2.9073    4.9404 H   0  0  0  0  0  0  0  0  0  0  0  0
    5.8005   -2.1940    2.8940 H   0  0  0  0  0  0  0  0  0  0  0  0
    4.9251   -6.0314    9.1192 H   0  0  0  0  0  0  0  0  0  0  0  0
    6.4228   -5.5848   11.5860 H   0  0  0  0  0  0  0  0  0  0  0  0
    7.0615   -7.9233    9.7312 H   0  0  0  0  0  0  0  0  0  0  0  0
    8.1371   -6.5475   10.0751 H   0  0  0  0  0  0  0  0  0  0  0  0
    8.7248   -8.5082   11.4747 H   0  0  0  0  0  0  0  0  0  0  0  0
    8.1477   -7.1565   12.4788 H   0  0  0  0  0  0  0  0  0  0  0  0
    6.4663   -9.5290   11.5506 H   0  0  0  0  0  0  0  0  0  0  0  0
    7.1180   -9.2970   13.1907 H   0  0  0  0  0  0  0  0  0  0  0  0
    4.7520   -8.5663   13.0615 H   0  0  0  0  0  0  0  0  0  0  0  0
    5.8276   -7.1904   13.4054 H   0  0  0  0  0  0  0  0  0  0  0  0
    4.1643   -6.6056   11.6619 H   0  0  0  0  0  0  0  0  0  0  0  0
    4.7414   -7.9573   10.6579 H   0  0  0  0  0  0  0  0  0  0  0  0
    0.3937   -1.6745   -6.0923 H   0  0  0  0  0  0  0  0  0  0  0  0
    1.4212   -0.2228   -6.1642 H   0  0  0  0  0  0  0  0  0  0  0  0
    1.9290   -1.7145   -6.9920 H   0  0  0  0  0  0  0  0  0  0  0  0
   -2.0185   -0.1131   -0.7369 H   0  0  0  0  0  0  0  0  0  0  0  0
   -1.4640   -1.5790    0.1068 H   0  0  0  0  0  0  0  0  0  0  0  0
   -1.8832   -0.1210    1.0378 H   0  0  0  0  0  0  0  0  0  0  0  0
  1  2  1  0  0  0  0
  1 38  1  0  0  0  0
  1 39  1  0  0  0  0
  1 40  1  0  0  0  0
  2 12  1  0  0  0  0
  2  3  1  0  0  0  0
  2 37  1  0  0  0  0
  3  8  2  0  0  0  0
  3  4  1  0  0  0  0
  4  5  2  0  0  0  0
  4 41  1  0  0  0  0
  5  6  1  0  0  0  0
  5 42  1  0  0  0  0
  6  7  2  0  0  0  0
  6 35  1  0  0  0  0
  7  8  1  0  0  0  0
  7 43  1  0  0  0  0
  8  9  1  0  0  0  0
  9 10  2  0  0  0  0
  9 11  1  0  0  0  0
 11 12  1  0  0  0  0
 11 14  1  0  0  0  0
 12 13  2  0  0  0  0
 14 15  1  0  0  0  0
 14 44  1  0  0  0  0
 14 45  1  0  0  0  0
 15 16  1  0  0  0  0
 15 46  1  0  0  0  0
 15 47  1  0  0  0  0
 16 21  2  0  0  0  0
 16 17  1  0  0  0  0
 17 18  2  0  0  0  0
 17 48  1  0  0  0  0
 18 19  1  0  0  0  0
 18 49  1  0  0  0  0
 19 20  2  0  0  0  0
 19 22  1  0  0  0  0
 20 21  1  0  0  0  0
 20 50  1  0  0  0  0
 21 51  1  0  0  0  0
 22 23  2  0  0  0  0
 22 24  2  0  0  0  0
 22 25  1  0  0  0  0
 25 26  2  0  0  0  0
 26 27  1  0  0  0  0
 26 28  1  0  0  0  0
 28 29  1  0  0  0  0
 28 52  1  0  0  0  0
 29 34  1  0  0  0  0
 29 30  1  0  0  0  0
 29 53  1  0  0  0  0
 30 31  1  0  0  0  0
 30 54  1  0  0  0  0
 30 55  1  0  0  0  0
 31 32  1  0  0  0  0
 31 56  1  0  0  0  0
 31 57  1  0  0  0  0
 32 33  1  0  0  0  0
 32 58  1  0  0  0  0
 32 59  1  0  0  0  0
 33 34  1  0  0  0  0
 33 60  1  0  0  0  0
 33 61  1  0  0  0  0
 34 62  1  0  0  0  0
 34 63  1  0  0  0  0
 35 36  1  0  0  0  0
 36 64  1  0  0  0  0
 36 65  1  0  0  0  0
 36 66  1  0  0  0  0
 37 67  1  0  0  0  0
 37 68  1  0  0  0  0
 37 69  1  0  0  0  0
M  CHG  1  27  -1
M  END
$$$$
