ZINC19364219
 OpenBabel08292219463D

 40 39  0  0  1  0  0  0  0  0999 V2000
   -0.0187    1.5258    0.0104 C   0  0  0  0  0  0  0  0  0  0  0  0
    0.0021   -0.0041    0.0020 C   0  0  0  0  0  0  0  0  0  0  0  0
   -1.4333   -0.5336    0.0129 C   0  0  1  0  0  0  0  0  0  0  0  0
   -1.9862   -0.1019   -0.8214 H   0  0  0  0  0  0  0  0  0  0  0  0
   -1.4157   -2.0577   -0.1212 C   0  0  0  0  0  0  0  0  0  0  0  0
   -0.5943   -2.6167    0.9058 O   0  0  0  0  0  0  0  0  0  0  0  0
   -2.0833   -0.1607    1.2764 N   0  3  0  0  0  0  0  0  0  0  0  0
   -3.4954   -0.5639    1.2383 C   0  0  0  0  0  0  0  0  0  0  0  0
   -4.1723   -0.1755    2.5543 C   0  0  0  0  0  0  0  0  0  0  0  0
   -5.5844   -0.5787    2.5161 N   0  3  0  0  0  0  0  0  0  0  0  0
   -6.2344   -0.2058    3.7797 C   0  0  1  0  0  0  0  0  0  0  0  0
   -6.0912    0.8594    3.9613 H   0  0  0  0  0  0  0  0  0  0  0  0
   -7.7309   -0.5118    3.6931 C   0  0  0  0  0  0  0  0  0  0  0  0
   -8.3732    0.3803    2.6288 C   0  0  0  0  0  0  0  0  0  0  0  0
   -5.6156   -1.0065    4.9272 C   0  0  0  0  0  0  0  0  0  0  0  0
   -5.9040   -2.3947    4.7491 O   0  0  0  0  0  0  0  0  0  0  0  0
    1.0039    1.9031    0.0027 H   0  0  0  0  0  0  0  0  0  0  0  0
   -0.5459    1.8868   -0.8726 H   0  0  0  0  0  0  0  0  0  0  0  0
   -0.5289    1.8773    0.9072 H   0  0  0  0  0  0  0  0  0  0  0  0
    0.5123   -0.3556   -0.8948 H   0  0  0  0  0  0  0  0  0  0  0  0
    0.5293   -0.3651    0.8851 H   0  0  0  0  0  0  0  0  0  0  0  0
   -2.4308   -2.4427   -0.0245 H   0  0  0  0  0  0  0  0  0  0  0  0
   -1.0145   -2.3319   -1.0969 H   0  0  0  0  0  0  0  0  0  0  0  0
   -0.5369   -3.5817    0.8819 H   0  0  0  0  0  0  0  0  0  0  0  0
   -1.6210   -0.6267    2.0427 H   0  0  0  0  0  0  0  0  0  0  0  0
   -3.9947   -0.0605    0.4104 H   0  0  0  0  0  0  0  0  0  0  0  0
   -3.5615   -1.6431    1.1003 H   0  0  0  0  0  0  0  0  0  0  0  0
   -3.6730   -0.6789    3.3821 H   0  0  0  0  0  0  0  0  0  0  0  0
   -4.1062    0.9037    2.6922 H   0  0  0  0  0  0  0  0  0  0  0  0
   -6.0466   -0.1127    1.7498 H   0  0  0  0  0  0  0  0  0  0  0  0
   -7.8728   -1.5584    3.4237 H   0  0  0  0  0  0  0  0  0  0  0  0
   -8.1978   -0.3187    4.6589 H   0  0  0  0  0  0  0  0  0  0  0  0
   -9.4394    0.1623    2.5671 H   0  0  0  0  0  0  0  0  0  0  0  0
   -8.2313    1.4269    2.8982 H   0  0  0  0  0  0  0  0  0  0  0  0
   -7.9063    0.1873    1.6629 H   0  0  0  0  0  0  0  0  0  0  0  0
   -4.5359   -0.8576    4.9334 H   0  0  0  0  0  0  0  0  0  0  0  0
   -6.0347   -0.6670    5.8744 H   0  0  0  0  0  0  0  0  0  0  0  0
   -5.5414   -2.9638    5.4417 H   0  0  0  0  0  0  0  0  0  0  0  0
   -2.0220    0.8383    1.4041 H   0  0  0  0  0  0  0  0  0  0  0  0
   -5.6456   -1.5777    2.3885 H   0  0  0  0  0  0  0  0  0  0  0  0
  1  2  1  0  0  0  0
  1 17  1  0  0  0  0
  1 18  1  0  0  0  0
  1 19  1  0  0  0  0
  2  3  1  0  0  0  0
  2 20  1  0  0  0  0
  2 21  1  0  0  0  0
  3  4  1  6  0  0  0
  3  5  1  0  0  0  0
  3  7  1  0  0  0  0
  5  6  1  0  0  0  0
  5 22  1  0  0  0  0
  5 23  1  0  0  0  0
  6 24  1  0  0  0  0
  7  8  1  0  0  0  0
  7 25  1  0  0  0  0
  7 39  1  0  0  0  0
  8  9  1  0  0  0  0
  8 26  1  0  0  0  0
  8 27  1  0  0  0  0
  9 10  1  0  0  0  0
  9 28  1  0  0  0  0
  9 29  1  0  0  0  0
 10 11  1  0  0  0  0
 10 30  1  0  0  0  0
 10 40  1  0  0  0  0
 11 12  1  1  0  0  0
 11 13  1  0  0  0  0
 11 15  1  0  0  0  0
 13 14  1  0  0  0  0
 13 31  1  0  0  0  0
 13 32  1  0  0  0  0
 14 33  1  0  0  0  0
 14 34  1  0  0  0  0
 14 35  1  0  0  0  0
 15 16  1  0  0  0  0
 15 36  1  0  0  0  0
 15 37  1  0  0  0  0
 16 38  1  0  0  0  0
M  CHG  2   7   1  10   1
M  END
$$$$
