ZINC19796158
 OpenBabel08292219463D

 41 44  0  0  0  0  0  0  0  0999 V2000
   -0.0667    1.4397   -0.3841 C   0  0  0  0  0  0  0  0  0  0  0  0
   -0.0227   -0.0168   -0.1983 N   0  0  0  0  0  0  0  0  0  0  0  0
    0.3818   -0.6937   -1.4376 C   0  0  0  0  0  0  0  0  0  0  0  0
    0.2409   -2.2089   -1.2575 C   0  0  0  0  0  0  0  0  0  0  0  0
    0.9912   -2.6085   -0.0572 N   0  0  0  0  0  0  0  0  0  0  0  0
    0.7385   -1.8808    1.1957 C   0  0  0  0  0  0  0  0  0  0  0  0
    0.8598   -0.3785    0.9190 C   0  0  0  0  0  0  0  0  0  0  0  0
    1.9059   -3.6360   -0.1053 C   0  0  0  0  0  0  0  0  0  0  0  0
    2.1755   -4.1354   -1.2623 N   0  0  0  0  0  0  0  0  0  0  0  0
    3.0301   -5.1602   -1.5359 C   0  0  0  0  0  0  0  0  0  0  0  0
    2.6657   -6.1062   -2.4992 C   0  0  0  0  0  0  0  0  0  0  0  0
    3.5267   -7.1354   -2.8220 C   0  0  0  0  0  0  0  0  0  0  0  0
    4.7554   -7.2359   -2.1967 C   0  0  0  0  0  0  0  0  0  0  0  0
    5.1216   -6.3134   -1.2321 C   0  0  0  0  0  0  0  0  0  0  0  0
    4.2608   -5.2852   -0.8865 C   0  0  0  0  0  0  0  0  0  0  0  0
    4.6124   -4.4416    0.1179 O   0  0  0  0  0  0  0  0  0  0  0  0
    3.8464   -4.4364    1.2357 C   0  0  0  0  0  0  0  0  0  0  0  0
    2.5017   -4.0718    1.1683 C   0  0  0  0  0  0  0  0  0  0  0  0
    1.7196   -4.1192    2.3233 C   0  0  0  0  0  0  0  0  0  0  0  0
    2.2870   -4.4952    3.5253 C   0  0  0  0  0  0  0  0  0  0  0  0
    3.6305   -4.8229    3.5886 C   0  0  0  0  0  0  0  0  0  0  0  0
    4.4017   -4.8004    2.4517 C   0  0  0  0  0  0  0  0  0  0  0  0
    1.3127   -4.5565    4.9608 Cl  0  0  0  0  0  0  0  0  0  0  0  0
    0.9364    1.8093   -0.5973 H   0  0  0  0  0  0  0  0  0  0  0  0
   -0.7271    1.6799   -1.2174 H   0  0  0  0  0  0  0  0  0  0  0  0
   -0.4420    1.9108    0.5243 H   0  0  0  0  0  0  0  0  0  0  0  0
   -0.2566   -0.3639   -2.2573 H   0  0  0  0  0  0  0  0  0  0  0  0
    1.4198   -0.4492   -1.6635 H   0  0  0  0  0  0  0  0  0  0  0  0
   -0.8110   -2.4668   -1.1346 H   0  0  0  0  0  0  0  0  0  0  0  0
    0.6467   -2.7207   -2.1302 H   0  0  0  0  0  0  0  0  0  0  0  0
   -0.2656   -2.1072    1.5545 H   0  0  0  0  0  0  0  0  0  0  0  0
    1.4732   -2.1756    1.9449 H   0  0  0  0  0  0  0  0  0  0  0  0
    1.8911   -0.1384    0.6603 H   0  0  0  0  0  0  0  0  0  0  0  0
    0.5680    0.1799    1.8085 H   0  0  0  0  0  0  0  0  0  0  0  0
    1.7075   -6.0314   -2.9917 H   0  0  0  0  0  0  0  0  0  0  0  0
    3.2394   -7.8646   -3.5652 H   0  0  0  0  0  0  0  0  0  0  0  0
    5.4308   -8.0362   -2.4610 H   0  0  0  0  0  0  0  0  0  0  0  0
    6.0829   -6.3957   -0.7469 H   0  0  0  0  0  0  0  0  0  0  0  0
    0.6717   -3.8618    2.2774 H   0  0  0  0  0  0  0  0  0  0  0  0
    4.0715   -5.1034    4.5337 H   0  0  0  0  0  0  0  0  0  0  0  0
    5.4488   -5.0585    2.5103 H   0  0  0  0  0  0  0  0  0  0  0  0
  1  2  1  0  0  0  0
  1 24  1  0  0  0  0
  1 25  1  0  0  0  0
  1 26  1  0  0  0  0
  2  7  1  0  0  0  0
  2  3  1  0  0  0  0
  3  4  1  0  0  0  0
  3 27  1  0  0  0  0
  3 28  1  0  0  0  0
  4  5  1  0  0  0  0
  4 29  1  0  0  0  0
  4 30  1  0  0  0  0
  5  6  1  0  0  0  0
  5  8  1  0  0  0  0
  6  7  1  0  0  0  0
  6 31  1  0  0  0  0
  6 32  1  0  0  0  0
  7 33  1  0  0  0  0
  7 34  1  0  0  0  0
  8 18  1  0  0  0  0
  8  9  2  0  0  0  0
  9 10  1  0  0  0  0
 10 15  2  0  0  0  0
 10 11  1  0  0  0  0
 11 12  2  0  0  0  0
 11 35  1  0  0  0  0
 12 13  1  0  0  0  0
 12 36  1  0  0  0  0
 13 14  2  0  0  0  0
 13 37  1  0  0  0  0
 14 15  1  0  0  0  0
 14 38  1  0  0  0  0
 15 16  1  0  0  0  0
 16 17  1  0  0  0  0
 17 22  2  0  0  0  0
 17 18  1  0  0  0  0
 18 19  2  0  0  0  0
 19 20  1  0  0  0  0
 19 39  1  0  0  0  0
 20 21  2  0  0  0  0
 20 23  1  0  0  0  0
 21 22  1  0  0  0  0
 21 40  1  0  0  0  0
 22 41  1  0  0  0  0
M  END
$$$$
