ZINC00004949
 OpenBabel08292219463D

 29 29  0  0  0  0  0  0  0  0999 V2000
    0.6128    1.8465    0.4180 C   0  0  0  0  0  0  0  0  0  0  0  0
    2.1217    2.0368    0.2505 C   0  0  0  0  0  0  0  0  0  0  0  0
    2.5530    1.5106   -1.1199 C   0  0  0  0  0  0  0  0  0  0  0  0
    2.2117    0.0229   -1.2255 C   0  0  0  0  0  0  0  0  0  0  0  0
    0.7029   -0.1674   -1.0580 C   0  0  0  0  0  0  0  0  0  0  0  0
    0.2715    0.3588    0.3124 C   0  0  0  0  0  0  0  0  0  0  0  0
    2.9479   -0.7484   -0.1283 C   0  0  0  0  0  0  0  0  0  0  0  0
    4.4351   -0.6014   -0.3223 C   0  0  0  0  0  0  0  0  0  0  0  0
    4.8663    0.1222   -1.2038 O   0  0  0  0  0  0  0  0  0  0  0  0
    5.2072   -1.2060    0.4021 O   0  0  0  0  0  1  0  0  0  0  0  0
    2.6430   -0.5033   -2.5959 C   0  0  0  0  0  0  0  0  0  0  0  0
    2.4374   -1.9569   -2.6492 N   0  3  0  0  0  0  0  0  0  0  0  0
    0.3056    2.2214    1.3943 H   0  0  0  0  0  0  0  0  0  0  0  0
    0.0883    2.3960   -0.3637 H   0  0  0  0  0  0  0  0  0  0  0  0
    2.3648    3.0966    0.3257 H   0  0  0  0  0  0  0  0  0  0  0  0
    2.6462    1.4873    1.0322 H   0  0  0  0  0  0  0  0  0  0  0  0
    2.0285    2.0600   -1.9017 H   0  0  0  0  0  0  0  0  0  0  0  0
    3.6279    1.6461   -1.2393 H   0  0  0  0  0  0  0  0  0  0  0  0
    0.1783    0.3821   -1.8397 H   0  0  0  0  0  0  0  0  0  0  0  0
    0.4597   -1.2273   -1.1332 H   0  0  0  0  0  0  0  0  0  0  0  0
    0.7961   -0.1907    1.0941 H   0  0  0  0  0  0  0  0  0  0  0  0
   -0.8034    0.2233    0.4318 H   0  0  0  0  0  0  0  0  0  0  0  0
    2.6676   -0.3497    0.8467 H   0  0  0  0  0  0  0  0  0  0  0  0
    2.6771   -1.8029   -0.1811 H   0  0  0  0  0  0  0  0  0  0  0  0
    2.0481   -0.0235   -3.3731 H   0  0  0  0  0  0  0  0  0  0  0  0
    3.6978   -0.2795   -2.7556 H   0  0  0  0  0  0  0  0  0  0  0  0
    1.4593   -2.1635   -2.5123 H   0  0  0  0  0  0  0  0  0  0  0  0
    2.7320   -2.3055   -3.5491 H   0  0  0  0  0  0  0  0  0  0  0  0
    2.9797   -2.4001   -1.9229 H   0  0  0  0  0  0  0  0  0  0  0  0
  1  6  1  0  0  0  0
  1  2  1  0  0  0  0
  1 13  1  0  0  0  0
  1 14  1  0  0  0  0
  2  3  1  0  0  0  0
  2 15  1  0  0  0  0
  2 16  1  0  0  0  0
  3  4  1  0  0  0  0
  3 17  1  0  0  0  0
  3 18  1  0  0  0  0
  4  5  1  0  0  0  0
  4  7  1  0  0  0  0
  4 11  1  0  0  0  0
  5  6  1  0  0  0  0
  5 19  1  0  0  0  0
  5 20  1  0  0  0  0
  6 21  1  0  0  0  0
  6 22  1  0  0  0  0
  7  8  1  0  0  0  0
  7 23  1  0  0  0  0
  7 24  1  0  0  0  0
  8  9  2  0  0  0  0
  8 10  1  0  0  0  0
 11 12  1  0  0  0  0
 11 25  1  0  0  0  0
 11 26  1  0  0  0  0
 12 27  1  0  0  0  0
 12 28  1  0  0  0  0
 12 29  1  0  0  0  0
M  CHG  1  12   1
M  END
$$$$
