ZINC00968264
 OpenBabel08292219463D

 44 47  0  0  1  0  0  0  0  0999 V2000
   -0.0178    1.4648    0.0101 C   0  0  0  0  0  0  0  0  0  0  0  0
    0.0021   -0.0041    0.0020 N   0  3  1  0  0  0  0  0  0  0  0  0
    0.6740   -0.4746   -1.2151 C   0  0  0  0  0  0  0  0  0  0  0  0
    0.5450   -1.9989   -1.3133 C   0  0  0  0  0  0  0  0  0  0  0  0
    1.0748   -2.6020   -0.0289 C   0  0  0  0  0  0  0  0  0  0  0  0
    1.9463   -3.6220   -0.0482 C   0  0  0  0  0  0  0  0  0  0  0  0
    2.4250   -4.1895   -1.3301 C   0  0  0  0  0  0  0  0  0  0  0  0
    3.0785   -3.3773   -2.2512 C   0  0  0  0  0  0  0  0  0  0  0  0
    3.5665   -3.9181   -3.4240 C   0  0  0  0  0  0  0  0  0  0  0  0
    3.4131   -5.2699   -3.6864 C   0  0  0  0  0  0  0  0  0  0  0  0
    2.7520   -6.0862   -2.7951 C   0  0  0  0  0  0  0  0  0  0  0  0
    2.2259   -5.5538   -1.6113 C   0  0  0  0  0  0  0  0  0  0  0  0
    1.4464   -6.4065   -0.7195 C   0  0  0  0  0  0  0  0  0  0  0  0
    1.4561   -6.4157    0.5971 C   0  0  0  0  0  0  0  0  0  0  0  0
    2.2540   -5.5751    1.4858 C   0  0  0  0  0  0  0  0  0  0  0  0
    2.4604   -4.2071    1.2114 C   0  0  0  0  0  0  0  0  0  0  0  0
    3.1556   -3.4081    2.1146 C   0  0  0  0  0  0  0  0  0  0  0  0
    3.6869   -3.9641    3.2610 C   0  0  0  0  0  0  0  0  0  0  0  0
    3.5355   -5.3176    3.5164 C   0  0  0  0  0  0  0  0  0  0  0  0
    2.8191   -6.1278    2.6417 C   0  0  0  0  0  0  0  0  0  0  0  0
    0.5864   -2.0126    1.2782 C   0  0  0  0  0  0  0  0  0  0  0  0
    0.7124   -0.4873    1.1920 C   0  0  0  0  0  0  0  0  0  0  0  0
    1.0047    1.8421    0.0024 H   0  0  0  0  0  0  0  0  0  0  0  0
   -0.5450    1.8259   -0.8730 H   0  0  0  0  0  0  0  0  0  0  0  0
   -0.5280    1.8163    0.9069 H   0  0  0  0  0  0  0  0  0  0  0  0
    0.2103   -0.0138   -2.0873 H   0  0  0  0  0  0  0  0  0  0  0  0
    1.7283   -0.2009   -1.1770 H   0  0  0  0  0  0  0  0  0  0  0  0
   -0.5023   -2.2718   -1.4432 H   0  0  0  0  0  0  0  0  0  0  0  0
    1.1283   -2.3636   -2.1588 H   0  0  0  0  0  0  0  0  0  0  0  0
    3.2037   -2.3238   -2.0490 H   0  0  0  0  0  0  0  0  0  0  0  0
    4.0694   -3.2849   -4.1399 H   0  0  0  0  0  0  0  0  0  0  0  0
    3.8150   -5.6873   -4.5979 H   0  0  0  0  0  0  0  0  0  0  0  0
    2.6391   -7.1387   -3.0096 H   0  0  0  0  0  0  0  0  0  0  0  0
    0.7830   -7.1132   -1.1958 H   0  0  0  0  0  0  0  0  0  0  0  0
    0.7981   -7.1264    1.0749 H   0  0  0  0  0  0  0  0  0  0  0  0
    3.2796   -2.3534    1.9184 H   0  0  0  0  0  0  0  0  0  0  0  0
    4.2233   -3.3416    3.9618 H   0  0  0  0  0  0  0  0  0  0  0  0
    3.9745   -5.7475    4.4045 H   0  0  0  0  0  0  0  0  0  0  0  0
    2.7036   -7.1817    2.8475 H   0  0  0  0  0  0  0  0  0  0  0  0
   -0.4562   -2.2871    1.4386 H   0  0  0  0  0  0  0  0  0  0  0  0
    1.1963   -2.3861    2.1007 H   0  0  0  0  0  0  0  0  0  0  0  0
    1.7651   -0.2131    1.1231 H   0  0  0  0  0  0  0  0  0  0  0  0
    0.2770   -0.0359    2.0834 H   0  0  0  0  0  0  0  0  0  0  0  0
   -0.9452   -0.3513    0.0141 H   0  0  0  0  0  0  0  0  0  0  0  0
  1  2  1  0  0  0  0
  1 23  1  0  0  0  0
  1 24  1  0  0  0  0
  1 25  1  0  0  0  0
  2 22  1  0  0  0  0
  2  3  1  0  0  0  0
  2 44  1  1  0  0  0
  3  4  1  0  0  0  0
  3 26  1  0  0  0  0
  3 27  1  0  0  0  0
  4  5  1  0  0  0  0
  4 28  1  0  0  0  0
  4 29  1  0  0  0  0
  5  6  2  0  0  0  0
  5 21  1  0  0  0  0
  6 16  1  0  0  0  0
  6  7  1  0  0  0  0
  7 12  2  0  0  0  0
  7  8  1  0  0  0  0
  8  9  2  0  0  0  0
  8 30  1  0  0  0  0
  9 10  1  0  0  0  0
  9 31  1  0  0  0  0
 10 11  2  0  0  0  0
 10 32  1  0  0  0  0
 11 12  1  0  0  0  0
 11 33  1  0  0  0  0
 12 13  1  0  0  0  0
 13 14  2  0  0  0  0
 13 34  1  0  0  0  0
 14 15  1  0  0  0  0
 14 35  1  0  0  0  0
 15 20  2  0  0  0  0
 15 16  1  0  0  0  0
 16 17  2  0  0  0  0
 17 18  1  0  0  0  0
 17 36  1  0  0  0  0
 18 19  2  0  0  0  0
 18 37  1  0  0  0  0
 19 20  1  0  0  0  0
 19 38  1  0  0  0  0
 20 39  1  0  0  0  0
 21 22  1  0  0  0  0
 21 40  1  0  0  0  0
 21 41  1  0  0  0  0
 22 42  1  0  0  0  0
 22 43  1  0  0  0  0
M  CHG  1   2   1
M  END
$$$$
