ZINC00897291
 OpenBabel08292219463D

 27 28  0  0  1  0  0  0  0  0999 V2000
   -0.0187    1.5258    0.0104 C   0  0  0  0  0  0  0  0  0  0  0  0
    0.0021   -0.0041    0.0020 C   0  0  0  0  0  0  0  0  0  0  0  0
   -1.3723   -0.5112    0.0124 N   0  0  0  0  0  0  0  0  0  0  0  0
   -2.0738   -0.7742    1.1327 C   0  0  0  0  0  0  0  0  0  0  0  0
   -1.7007   -0.6409    2.2785 O   0  0  0  0  0  0  0  0  0  0  0  0
   -3.4266   -1.2704    0.6621 C   0  0  1  0  0  0  0  0  0  0  0  0
   -4.2199   -0.6088    1.0098 H   0  0  0  0  0  0  0  0  0  0  0  0
   -3.3203   -1.2252   -0.8065 N   0  0  0  0  0  0  0  0  0  0  0  0
   -2.0882   -0.7649   -1.0890 C   0  0  0  0  0  0  0  0  0  0  0  0
   -1.6708   -0.6011   -2.2187 O   0  0  0  0  0  0  0  0  0  0  0  0
   -3.6684   -2.6803    1.1363 C   0  0  0  0  0  0  0  0  0  0  0  0
   -3.0935   -3.7434    0.4652 C   0  0  0  0  0  0  0  0  0  0  0  0
   -3.3153   -5.0366    0.9001 C   0  0  0  0  0  0  0  0  0  0  0  0
   -4.1116   -5.2668    2.0064 C   0  0  0  0  0  0  0  0  0  0  0  0
   -4.6857   -4.2037    2.6780 C   0  0  0  0  0  0  0  0  0  0  0  0
   -4.4604   -2.9102    2.2456 C   0  0  0  0  0  0  0  0  0  0  0  0
    1.0039    1.9031    0.0027 H   0  0  0  0  0  0  0  0  0  0  0  0
   -0.5459    1.8868   -0.8726 H   0  0  0  0  0  0  0  0  0  0  0  0
   -0.5289    1.8773    0.9072 H   0  0  0  0  0  0  0  0  0  0  0  0
    0.5123   -0.3556   -0.8948 H   0  0  0  0  0  0  0  0  0  0  0  0
    0.5293   -0.3651    0.8851 H   0  0  0  0  0  0  0  0  0  0  0  0
   -4.0060   -1.4756   -1.4452 H   0  0  0  0  0  0  0  0  0  0  0  0
   -2.4713   -3.5635   -0.3991 H   0  0  0  0  0  0  0  0  0  0  0  0
   -2.8667   -5.8672    0.3754 H   0  0  0  0  0  0  0  0  0  0  0  0
   -4.2854   -6.2773    2.3457 H   0  0  0  0  0  0  0  0  0  0  0  0
   -5.3081   -4.3836    3.5421 H   0  0  0  0  0  0  0  0  0  0  0  0
   -4.9060   -2.0794    2.7725 H   0  0  0  0  0  0  0  0  0  0  0  0
  1  2  1  0  0  0  0
  1 17  1  0  0  0  0
  1 18  1  0  0  0  0
  1 19  1  0  0  0  0
  2  3  1  0  0  0  0
  2 20  1  0  0  0  0
  2 21  1  0  0  0  0
  3  9  1  0  0  0  0
  3  4  1  0  0  0  0
  4  5  2  0  0  0  0
  4  6  1  0  0  0  0
  6  7  1  1  0  0  0
  6  8  1  0  0  0  0
  6 11  1  0  0  0  0
  8  9  1  0  0  0  0
  8 22  1  0  0  0  0
  9 10  2  0  0  0  0
 11 16  2  0  0  0  0
 11 12  1  0  0  0  0
 12 13  2  0  0  0  0
 12 23  1  0  0  0  0
 13 14  1  0  0  0  0
 13 24  1  0  0  0  0
 14 15  2  0  0  0  0
 14 25  1  0  0  0  0
 15 16  1  0  0  0  0
 15 26  1  0  0  0  0
 16 27  1  0  0  0  0
M  END
$$$$
