ZINC01481966
 OpenBabel08292219463D

 49 50  0  0  0  0  0  0  0  0999 V2000
    0.1122    1.4338    0.2060 C   0  0  0  0  0  0  0  0  0  0  0  0
    0.0208   -0.0843    0.0389 C   0  0  0  0  0  0  0  0  0  0  0  0
    0.5796   -0.4680   -1.2644 N   0  3  0  0  0  0  0  0  0  0  0  0
    2.0192   -0.1759   -1.2850 C   0  0  0  0  0  0  0  0  0  0  0  0
    2.5730   -0.4396   -2.6866 C   0  0  0  0  0  0  0  0  0  0  0  0
    4.0394   -0.0068   -2.7453 C   0  0  0  0  0  0  0  0  0  0  0  0
    4.5849   -0.2664   -4.1259 C   0  0  0  0  0  0  0  0  0  0  0  0
    5.1675   -1.4848   -4.4210 C   0  0  0  0  0  0  0  0  0  0  0  0
    5.6679   -1.7230   -5.6873 C   0  0  0  0  0  0  0  0  0  0  0  0
    5.5853   -0.7430   -6.6588 C   0  0  0  0  0  0  0  0  0  0  0  0
    5.0019    0.4750   -6.3640 C   0  0  0  0  0  0  0  0  0  0  0  0
    4.4977    0.7117   -5.0988 C   0  0  0  0  0  0  0  0  0  0  0  0
    0.3683   -1.9050   -1.4838 C   0  0  0  0  0  0  0  0  0  0  0  0
   -1.1313   -2.1901   -1.5868 C   0  0  0  0  0  0  0  0  0  0  0  0
   -1.3514   -3.6868   -1.8154 C   0  0  0  0  0  0  0  0  0  0  0  0
   -2.8286   -3.9676   -1.9168 C   0  0  0  0  0  0  0  0  0  0  0  0
   -3.5554   -4.2645   -0.7790 C   0  0  0  0  0  0  0  0  0  0  0  0
   -4.9103   -4.5221   -0.8720 C   0  0  0  0  0  0  0  0  0  0  0  0
   -5.5386   -4.4823   -2.1027 C   0  0  0  0  0  0  0  0  0  0  0  0
   -4.8119   -4.1845   -3.2404 C   0  0  0  0  0  0  0  0  0  0  0  0
   -3.4578   -3.9228   -3.1468 C   0  0  0  0  0  0  0  0  0  0  0  0
    1.1596    1.7319    0.2521 H   0  0  0  0  0  0  0  0  0  0  0  0
   -0.3675    1.9223   -0.6422 H   0  0  0  0  0  0  0  0  0  0  0  0
   -0.3904    1.7289    1.1271 H   0  0  0  0  0  0  0  0  0  0  0  0
    0.5849   -0.5719    0.8339 H   0  0  0  0  0  0  0  0  0  0  0  0
   -1.0231   -0.3934    0.0918 H   0  0  0  0  0  0  0  0  0  0  0  0
    2.1818    0.8690   -1.0206 H   0  0  0  0  0  0  0  0  0  0  0  0
    2.5301   -0.8163   -0.5660 H   0  0  0  0  0  0  0  0  0  0  0  0
    2.4989   -1.5034   -2.9124 H   0  0  0  0  0  0  0  0  0  0  0  0
    1.9971    0.1280   -3.4175 H   0  0  0  0  0  0  0  0  0  0  0  0
    4.1135    1.0570   -2.5195 H   0  0  0  0  0  0  0  0  0  0  0  0
    4.6153   -0.5744   -2.0144 H   0  0  0  0  0  0  0  0  0  0  0  0
    5.2320   -2.2504   -3.6620 H   0  0  0  0  0  0  0  0  0  0  0  0
    6.1237   -2.6746   -5.9177 H   0  0  0  0  0  0  0  0  0  0  0  0
    5.9769   -0.9289   -7.6480 H   0  0  0  0  0  0  0  0  0  0  0  0
    4.9377    1.2408   -7.1228 H   0  0  0  0  0  0  0  0  0  0  0  0
    4.0385    1.6619   -4.8695 H   0  0  0  0  0  0  0  0  0  0  0  0
    0.8600   -2.2075   -2.4084 H   0  0  0  0  0  0  0  0  0  0  0  0
    0.7883   -2.4657   -0.6488 H   0  0  0  0  0  0  0  0  0  0  0  0
   -1.6230   -1.8876   -0.6622 H   0  0  0  0  0  0  0  0  0  0  0  0
   -1.5513   -1.6294   -2.4219 H   0  0  0  0  0  0  0  0  0  0  0  0
   -0.8598   -3.9893   -2.7400 H   0  0  0  0  0  0  0  0  0  0  0  0
   -0.9315   -4.2475   -0.9803 H   0  0  0  0  0  0  0  0  0  0  0  0
   -3.0645   -4.2956    0.1825 H   0  0  0  0  0  0  0  0  0  0  0  0
   -5.4780   -4.7548    0.0168 H   0  0  0  0  0  0  0  0  0  0  0  0
   -6.5970   -4.6843   -2.1755 H   0  0  0  0  0  0  0  0  0  0  0  0
   -5.3027   -4.1538   -4.2019 H   0  0  0  0  0  0  0  0  0  0  0  0
   -2.8909   -3.6864   -4.0351 H   0  0  0  0  0  0  0  0  0  0  0  0
    0.1199    0.0550   -1.9946 H   0  0  0  0  0  0  0  0  0  0  0  0
  1  2  1  0  0  0  0
  1 22  1  0  0  0  0
  1 23  1  0  0  0  0
  1 24  1  0  0  0  0
  2  3  1  0  0  0  0
  2 25  1  0  0  0  0
  2 26  1  0  0  0  0
  3  4  1  0  0  0  0
  3 13  1  0  0  0  0
  3 49  1  0  0  0  0
  4  5  1  0  0  0  0
  4 27  1  0  0  0  0
  4 28  1  0  0  0  0
  5  6  1  0  0  0  0
  5 29  1  0  0  0  0
  5 30  1  0  0  0  0
  6  7  1  0  0  0  0
  6 31  1  0  0  0  0
  6 32  1  0  0  0  0
  7 12  2  0  0  0  0
  7  8  1  0  0  0  0
  8  9  2  0  0  0  0
  8 33  1  0  0  0  0
  9 10  1  0  0  0  0
  9 34  1  0  0  0  0
 10 11  2  0  0  0  0
 10 35  1  0  0  0  0
 11 12  1  0  0  0  0
 11 36  1  0  0  0  0
 12 37  1  0  0  0  0
 13 14  1  0  0  0  0
 13 38  1  0  0  0  0
 13 39  1  0  0  0  0
 14 15  1  0  0  0  0
 14 40  1  0  0  0  0
 14 41  1  0  0  0  0
 15 16  1  0  0  0  0
 15 42  1  0  0  0  0
 15 43  1  0  0  0  0
 16 21  2  0  0  0  0
 16 17  1  0  0  0  0
 17 18  2  0  0  0  0
 17 44  1  0  0  0  0
 18 19  1  0  0  0  0
 18 45  1  0  0  0  0
 19 20  2  0  0  0  0
 19 46  1  0  0  0  0
 20 21  1  0  0  0  0
 20 47  1  0  0  0  0
 21 48  1  0  0  0  0
M  CHG  1   3   1
M  END
$$$$
