ZINC16343331
 OpenBabel08292219463D

 34 34  0  0  0  0  0  0  0  0999 V2000
   -7.6209   -1.5817    0.2027 C   0  0  0  0  0  0  0  0  0  0  0  0
   -6.5803   -2.2470    1.1057 C   0  0  0  0  0  0  0  0  0  0  0  0
   -7.2834   -3.1852    2.0887 C   0  0  0  0  0  0  0  0  0  0  0  0
   -5.6409   -3.0149    0.2847 N   0  0  0  0  0  0  0  0  0  0  0  0
   -4.3713   -3.2674    0.7473 C   0  0  0  0  0  0  0  0  0  0  0  0
   -4.0398   -2.9254    1.9596 N   0  0  0  0  0  4  0  0  0  0  0  0
   -3.4484   -3.8831   -0.0724 N   0  0  0  0  0  0  0  0  0  0  0  0
   -3.3048   -3.4709   -1.3811 C   0  0  0  0  0  0  0  0  0  0  0  0
   -4.0379   -2.4977   -1.8415 N   0  0  0  0  0  0  0  0  0  0  0  0
   -2.3871   -4.0880   -2.2001 N   0  0  0  0  0  0  0  0  0  0  0  0
   -2.7462   -5.2382   -2.9115 C   0  0  0  0  0  0  0  0  0  0  0  0
   -2.1109   -5.5426   -4.1083 C   0  0  0  0  0  0  0  0  0  0  0  0
   -2.4673   -6.6784   -4.8085 C   0  0  0  0  0  0  0  0  0  0  0  0
   -3.4569   -7.5126   -4.3188 C   0  0  0  0  0  0  0  0  0  0  0  0
   -4.0916   -7.2116   -3.1265 C   0  0  0  0  0  0  0  0  0  0  0  0
   -3.7347   -6.0803   -2.4192 C   0  0  0  0  0  0  0  0  0  0  0  0
   -3.9033   -8.9389   -5.2020 Cl  0  0  0  0  0  0  0  0  0  0  0  0
   -8.3199   -1.0104    0.8135 H   0  0  0  0  0  0  0  0  0  0  0  0
   -7.1201   -0.9133   -0.4977 H   0  0  0  0  0  0  0  0  0  0  0  0
   -8.1642   -2.3474   -0.3511 H   0  0  0  0  0  0  0  0  0  0  0  0
   -6.0371   -1.4813    1.6594 H   0  0  0  0  0  0  0  0  0  0  0  0
   -6.5420   -3.6592    2.7321 H   0  0  0  0  0  0  0  0  0  0  0  0
   -7.9824   -2.6139    2.6996 H   0  0  0  0  0  0  0  0  0  0  0  0
   -7.8266   -3.9509    1.5350 H   0  0  0  0  0  0  0  0  0  0  0  0
   -5.9147   -3.3451   -0.5853 H   0  0  0  0  0  0  0  0  0  0  0  0
   -3.1436   -3.1029    2.2857 H   0  0  0  0  0  0  0  0  0  0  0  0
   -2.9003   -4.6058    0.2714 H   0  0  0  0  0  0  0  0  0  0  0  0
   -4.5882   -1.9766   -1.2361 H   0  0  0  0  0  0  0  0  0  0  0  0
   -1.4912   -3.7257   -2.2842 H   0  0  0  0  0  0  0  0  0  0  0  0
   -1.3390   -4.8915   -4.4913 H   0  0  0  0  0  0  0  0  0  0  0  0
   -1.9735   -6.9155   -5.7393 H   0  0  0  0  0  0  0  0  0  0  0  0
   -4.8638   -7.8641   -2.7467 H   0  0  0  0  0  0  0  0  0  0  0  0
   -4.2270   -5.8484   -1.4863 H   0  0  0  0  0  0  0  0  0  0  0  0
   -4.6891   -2.4933    2.5363 H   0  0  0  0  0  0  0  0  0  0  0  0
  1  2  1  0  0  0  0
  1 18  1  0  0  0  0
  1 19  1  0  0  0  0
  1 20  1  0  0  0  0
  2  3  1  0  0  0  0
  2  4  1  0  0  0  0
  2 21  1  0  0  0  0
  3 22  1  0  0  0  0
  3 23  1  0  0  0  0
  3 24  1  0  0  0  0
  4  5  1  0  0  0  0
  4 25  1  0  0  0  0
  5  6  2  0  0  0  0
  5  7  1  0  0  0  0
  6 26  1  0  0  0  0
  6 34  1  0  0  0  0
  7  8  1  0  0  0  0
  7 27  1  0  0  0  0
  8  9  2  0  0  0  0
  8 10  1  0  0  0  0
  9 28  1  0  0  0  0
 10 11  1  0  0  0  0
 10 29  1  0  0  0  0
 11 16  2  0  0  0  0
 11 12  1  0  0  0  0
 12 13  2  0  0  0  0
 12 30  1  0  0  0  0
 13 14  1  0  0  0  0
 13 31  1  0  0  0  0
 14 15  2  0  0  0  0
 14 17  1  0  0  0  0
 15 16  1  0  0  0  0
 15 32  1  0  0  0  0
 16 33  1  0  0  0  0
M  END
$$$$
