ZINC01530930
 OpenBabel08292219463D

 37 37  0  0  1  0  0  0  0  0999 V2000
    2.1439    6.4522    1.3893 C   0  0  0  0  0  0  0  0  0  0  0  0
    3.5439    5.8393    1.3181 C   0  0  0  0  0  0  0  0  0  0  0  0
    3.4357    4.3717    1.2819 C   0  0  0  0  0  0  0  0  0  0  0  0
    3.3494    3.2012    1.2531 C   0  0  0  0  0  0  0  0  0  0  0  0
    3.2412    1.7336    1.2169 C   0  0  1  0  0  0  0  0  0  0  0  0
    4.2630    1.3295    1.1661 H   0  0  0  0  0  0  0  0  0  0  0  0
    2.5334    1.2431    2.4815 C   0  0  0  0  0  0  0  0  0  0  0  0
    2.4366    1.3118   -0.0141 C   0  0  2  0  0  0  0  0  0  0  0  0
    1.1193    2.0639    0.0025 C   0  0  0  0  0  0  0  0  0  0  0  0
    1.0874    3.2758    0.0089 O   0  0  0  0  0  0  0  0  0  0  0  0
   -0.0161    1.3337    0.0094 N   0  0  0  0  0  0  0  0  0  0  0  0
    0.0021   -0.0041    0.0020 C   0  0  0  0  0  0  0  0  0  0  0  0
   -1.0667   -0.5817    0.0095 O   0  0  0  0  0  0  0  0  0  0  0  0
    1.1112   -0.7522   -0.0126 N   0  0  0  0  0  0  0  0  0  0  0  0
    2.3440   -0.2024   -0.0214 C   0  0  0  0  0  0  0  0  0  0  0  0
    3.3403   -0.8931   -0.0342 O   0  0  0  0  0  0  0  0  0  0  0  0
    0.9839   -2.2116   -0.0187 C   0  0  0  0  0  0  0  0  0  0  0  0
    3.2177    1.7469   -1.2557 C   0  0  0  0  0  0  0  0  0  0  0  0
    2.4968    1.2771   -2.4929 C   0  0  0  0  0  0  0  0  0  0  0  0
    2.1664    2.1367   -3.4246 C   0  0  0  0  0  0  0  0  0  0  0  0
    2.2247    7.5489    1.4164 H   0  0  0  0  0  0  0  0  0  0  0  0
    1.6350    6.0995    2.2985 H   0  0  0  0  0  0  0  0  0  0  0  0
    1.5654    6.1489    0.5042 H   0  0  0  0  0  0  0  0  0  0  0  0
    4.0528    6.1920    0.4089 H   0  0  0  0  0  0  0  0  0  0  0  0
    4.1224    6.1426    2.2031 H   0  0  0  0  0  0  0  0  0  0  0  0
    2.4525    0.1464    2.4545 H   0  0  0  0  0  0  0  0  0  0  0  0
    1.5269    1.6838    2.5327 H   0  0  0  0  0  0  0  0  0  0  0  0
    3.1119    1.5464    3.3665 H   0  0  0  0  0  0  0  0  0  0  0  0
   -0.9939    1.8374    0.0215 H   0  0  0  0  0  0  0  0  0  0  0  0
    1.9852   -2.6669   -0.0308 H   0  0  0  0  0  0  0  0  0  0  0  0
    0.4267   -2.5273   -0.9131 H   0  0  0  0  0  0  0  0  0  0  0  0
    0.4443   -2.5363    0.8831 H   0  0  0  0  0  0  0  0  0  0  0  0
    3.2982    2.8438   -1.2725 H   0  0  0  0  0  0  0  0  0  0  0  0
    4.2250    1.3057   -1.2285 H   0  0  0  0  0  0  0  0  0  0  0  0
    2.2480    0.2124   -2.6136 H   0  0  0  0  0  0  0  0  0  0  0  0
    1.6402    1.7938   -4.3277 H   0  0  0  0  0  0  0  0  0  0  0  0
    2.4152    3.2014   -3.3039 H   0  0  0  0  0  0  0  0  0  0  0  0
  1  2  1  0  0  0  0
  1 21  1  0  0  0  0
  1 22  1  0  0  0  0
  1 23  1  0  0  0  0
  2  3  1  0  0  0  0
  2 24  1  0  0  0  0
  2 25  1  0  0  0  0
  3  4  3  0  0  0  0
  4  5  1  0  0  0  0
  5  6  1  6  0  0  0
  5  7  1  0  0  0  0
  5  8  1  0  0  0  0
  7 26  1  0  0  0  0
  7 27  1  0  0  0  0
  7 28  1  0  0  0  0
  8 15  1  0  0  0  0
  8  9  1  0  0  0  0
  8 18  1  6  0  0  0
  9 10  2  0  0  0  0
  9 11  1  0  0  0  0
 11 12  1  0  0  0  0
 11 29  1  0  0  0  0
 12 13  2  0  0  0  0
 12 14  1  0  0  0  0
 14 15  1  0  0  0  0
 14 17  1  0  0  0  0
 15 16  2  0  0  0  0
 17 30  1  0  0  0  0
 17 31  1  0  0  0  0
 17 32  1  0  0  0  0
 18 19  1  0  0  0  0
 18 33  1  0  0  0  0
 18 34  1  0  0  0  0
 19 20  2  0  0  0  0
 19 35  1  0  0  0  0
 20 36  1  0  0  0  0
 20 37  1  0  0  0  0
M  END
$$$$
