ZINC03831586
 OpenBabel08292219463D

 49 51  0  0  1  0  0  0  0  0999 V2000
    0.5903    0.7253   -0.7221 C   0  0  0  0  0  0  0  0  0  0  0  0
    0.0755   -0.6309   -0.2359 C   0  0  2  0  0  0  0  0  0  0  0  0
    0.1940   -1.3699   -1.0283 H   0  0  0  0  0  0  0  0  0  0  0  0
   -1.4045   -0.5121    0.1335 C   0  0  0  0  0  0  0  0  0  0  0  0
   -2.1820   -0.1852   -1.0644 N   0  0  0  0  0  0  0  0  0  0  0  0
   -2.7980    1.0628   -1.2064 C   0  0  0  0  0  0  0  0  0  0  0  0
   -1.9988    2.1978   -1.1155 C   0  0  0  0  0  0  0  0  0  0  0  0
   -2.5438    3.4533   -1.2842 C   0  0  0  0  0  0  0  0  0  0  0  0
   -3.8963    3.5709   -1.5485 C   0  0  0  0  0  0  0  0  0  0  0  0
   -4.6893    2.4490   -1.6235 C   0  0  0  0  0  0  0  0  0  0  0  0
   -4.1616    1.1695   -1.4367 C   0  0  0  0  0  0  0  0  0  0  0  0
   -5.1815    0.0543   -1.4643 C   0  0  0  0  0  0  0  0  0  0  0  0
   -4.5844   -1.3129   -1.1801 C   0  0  0  0  0  0  0  0  0  0  0  0
   -3.5650   -1.6955   -2.2232 C   0  0  0  0  0  0  0  0  0  0  0  0
   -2.3268   -1.1087   -2.1043 C   0  0  0  0  0  0  0  0  0  0  0  0
   -1.3017   -1.4222   -2.9807 C   0  0  0  0  0  0  0  0  0  0  0  0
   -1.5541   -2.3234   -4.0024 C   0  0  0  0  0  0  0  0  0  0  0  0
   -2.8062   -2.8943   -4.1397 C   0  0  0  0  0  0  0  0  0  0  0  0
   -3.8333   -2.5825   -3.2394 C   0  0  0  0  0  0  0  0  0  0  0  0
    0.8743   -1.0688    0.9934 C   0  0  0  0  0  0  0  0  0  0  0  0
    2.2740   -1.2987    0.6114 N   0  3  0  0  0  0  0  0  0  0  0  0
    3.0655   -1.6023    1.8111 C   0  0  0  0  0  0  0  0  0  0  0  0
    2.3472   -2.4300   -0.3228 C   0  0  0  0  0  0  0  0  0  0  0  0
    1.6654    0.6663   -0.8917 H   0  0  0  0  0  0  0  0  0  0  0  0
    0.0897    0.9914   -1.6531 H   0  0  0  0  0  0  0  0  0  0  0  0
    0.3826    1.4844    0.0320 H   0  0  0  0  0  0  0  0  0  0  0  0
   -1.7532   -1.4588    0.5458 H   0  0  0  0  0  0  0  0  0  0  0  0
   -1.5316    0.2762    0.8754 H   0  0  0  0  0  0  0  0  0  0  0  0
   -0.9433    2.0949   -0.9110 H   0  0  0  0  0  0  0  0  0  0  0  0
   -1.9224    4.3335   -1.2104 H   0  0  0  0  0  0  0  0  0  0  0  0
   -4.3320    4.5479   -1.6964 H   0  0  0  0  0  0  0  0  0  0  0  0
   -5.7431    2.5603   -1.8318 H   0  0  0  0  0  0  0  0  0  0  0  0
   -5.9483    0.2630   -0.7184 H   0  0  0  0  0  0  0  0  0  0  0  0
   -5.6505    0.0335   -2.4480 H   0  0  0  0  0  0  0  0  0  0  0  0
   -4.1043   -1.2959   -0.2017 H   0  0  0  0  0  0  0  0  0  0  0  0
   -5.3821   -2.0556   -1.1717 H   0  0  0  0  0  0  0  0  0  0  0  0
   -0.3257   -0.9732   -2.8704 H   0  0  0  0  0  0  0  0  0  0  0  0
   -0.7676   -2.5820   -4.6960 H   0  0  0  0  0  0  0  0  0  0  0  0
   -2.9948   -3.5861   -4.9473 H   0  0  0  0  0  0  0  0  0  0  0  0
   -4.8137   -3.0242   -3.3402 H   0  0  0  0  0  0  0  0  0  0  0  0
    0.8285   -0.2886    1.7533 H   0  0  0  0  0  0  0  0  0  0  0  0
    0.4506   -1.9903    1.3927 H   0  0  0  0  0  0  0  0  0  0  0  0
    2.6684   -2.4965    2.2916 H   0  0  0  0  0  0  0  0  0  0  0  0
    4.1041   -1.7729    1.5277 H   0  0  0  0  0  0  0  0  0  0  0  0
    3.0112   -0.7629    2.5043 H   0  0  0  0  0  0  0  0  0  0  0  0
    1.7599   -2.2047   -1.2130 H   0  0  0  0  0  0  0  0  0  0  0  0
    3.3858   -2.6005   -0.6063 H   0  0  0  0  0  0  0  0  0  0  0  0
    1.9501   -3.3242    0.1577 H   0  0  0  0  0  0  0  0  0  0  0  0
    2.6416   -0.4709    0.1666 H   0  0  0  0  0  0  0  0  0  0  0  0
  1  2  1  0  0  0  0
  1 24  1  0  0  0  0
  1 25  1  0  0  0  0
  1 26  1  0  0  0  0
  2  3  1  6  0  0  0
  2  4  1  0  0  0  0
  2 20  1  0  0  0  0
  4  5  1  0  0  0  0
  4 27  1  0  0  0  0
  4 28  1  0  0  0  0
  5 15  1  0  0  0  0
  5  6  1  0  0  0  0
  6 11  2  0  0  0  0
  6  7  1  0  0  0  0
  7  8  2  0  0  0  0
  7 29  1  0  0  0  0
  8  9  1  0  0  0  0
  8 30  1  0  0  0  0
  9 10  2  0  0  0  0
  9 31  1  0  0  0  0
 10 11  1  0  0  0  0
 10 32  1  0  0  0  0
 11 12  1  0  0  0  0
 12 13  1  0  0  0  0
 12 33  1  0  0  0  0
 12 34  1  0  0  0  0
 13 14  1  0  0  0  0
 13 35  1  0  0  0  0
 13 36  1  0  0  0  0
 14 19  2  0  0  0  0
 14 15  1  0  0  0  0
 15 16  2  0  0  0  0
 16 17  1  0  0  0  0
 16 37  1  0  0  0  0
 17 18  2  0  0  0  0
 17 38  1  0  0  0  0
 18 19  1  0  0  0  0
 18 39  1  0  0  0  0
 19 40  1  0  0  0  0
 20 21  1  0  0  0  0
 20 41  1  0  0  0  0
 20 42  1  0  0  0  0
 21 22  1  0  0  0  0
 21 23  1  0  0  0  0
 21 49  1  0  0  0  0
 22 43  1  0  0  0  0
 22 44  1  0  0  0  0
 22 45  1  0  0  0  0
 23 46  1  0  0  0  0
 23 47  1  0  0  0  0
 23 48  1  0  0  0  0
M  CHG  1  21   1
M  END
$$$$
