ZINC12503076
 OpenBabel08292219463D

 32 32  0  0  0  0  0  0  0  0999 V2000
   -0.0187    1.5258    0.0104 C   0  0  0  0  0  0  0  0  0  0  0  0
    0.0021   -0.0041    0.0020 C   0  0  0  0  0  0  0  0  0  0  0  0
   -1.3723   -0.5112    0.0124 N   0  0  0  0  0  0  0  0  0  0  0  0
   -2.0398   -0.7467   -1.1935 C   0  0  0  0  0  0  0  0  0  0  0  0
   -1.9608   -1.9935   -1.8010 C   0  0  0  0  0  0  0  0  0  0  0  0
   -2.6215   -2.2229   -2.9916 C   0  0  0  0  0  0  0  0  0  0  0  0
   -3.3614   -1.2130   -3.5793 C   0  0  0  0  0  0  0  0  0  0  0  0
   -3.4421    0.0292   -2.9774 C   0  0  0  0  0  0  0  0  0  0  0  0
   -2.7879    0.2636   -1.7837 C   0  0  0  0  0  0  0  0  0  0  0  0
   -2.8815    1.6159   -1.1251 C   0  0  0  0  0  0  0  0  0  0  0  0
   -1.9934   -0.7507    1.1843 C   0  0  0  0  0  0  0  0  0  0  0  0
   -3.1344   -1.1717    1.1930 O   0  0  0  0  0  0  0  0  0  0  0  0
   -1.2914   -0.5030    2.4526 C   0  0  0  0  0  0  0  0  0  0  0  0
   -1.9043   -0.7394    3.6092 C   0  0  0  0  0  0  0  0  0  0  0  0
   -3.3182   -1.2610    3.6199 C   0  0  0  0  0  0  0  0  0  0  0  0
    1.0039    1.9031    0.0027 H   0  0  0  0  0  0  0  0  0  0  0  0
   -0.5459    1.8868   -0.8726 H   0  0  0  0  0  0  0  0  0  0  0  0
   -0.5289    1.8773    0.9072 H   0  0  0  0  0  0  0  0  0  0  0  0
    0.5123   -0.3556   -0.8948 H   0  0  0  0  0  0  0  0  0  0  0  0
    0.5293   -0.3651    0.8851 H   0  0  0  0  0  0  0  0  0  0  0  0
   -1.3829   -2.7824   -1.3427 H   0  0  0  0  0  0  0  0  0  0  0  0
   -2.5601   -3.1919   -3.4645 H   0  0  0  0  0  0  0  0  0  0  0  0
   -3.8769   -1.3949   -4.5108 H   0  0  0  0  0  0  0  0  0  0  0  0
   -4.0207    0.8157   -3.4389 H   0  0  0  0  0  0  0  0  0  0  0  0
   -2.0741    2.2527   -1.4865 H   0  0  0  0  0  0  0  0  0  0  0  0
   -3.8409    2.0727   -1.3680 H   0  0  0  0  0  0  0  0  0  0  0  0
   -2.7973    1.5004   -0.0445 H   0  0  0  0  0  0  0  0  0  0  0  0
   -0.2782   -0.1292    2.4450 H   0  0  0  0  0  0  0  0  0  0  0  0
   -1.3888   -0.5575    4.5407 H   0  0  0  0  0  0  0  0  0  0  0  0
   -3.6492   -1.3923    4.6501 H   0  0  0  0  0  0  0  0  0  0  0  0
   -3.9719   -0.5491    3.1161 H   0  0  0  0  0  0  0  0  0  0  0  0
   -3.3559   -2.2190    3.1013 H   0  0  0  0  0  0  0  0  0  0  0  0
  1  2  1  0  0  0  0
  1 16  1  0  0  0  0
  1 17  1  0  0  0  0
  1 18  1  0  0  0  0
  2  3  1  0  0  0  0
  2 19  1  0  0  0  0
  2 20  1  0  0  0  0
  3  4  1  0  0  0  0
  3 11  1  0  0  0  0
  4  9  2  0  0  0  0
  4  5  1  0  0  0  0
  5  6  2  0  0  0  0
  5 21  1  0  0  0  0
  6  7  1  0  0  0  0
  6 22  1  0  0  0  0
  7  8  2  0  0  0  0
  7 23  1  0  0  0  0
  8  9  1  0  0  0  0
  8 24  1  0  0  0  0
  9 10  1  0  0  0  0
 10 25  1  0  0  0  0
 10 26  1  0  0  0  0
 10 27  1  0  0  0  0
 11 12  2  0  0  0  0
 11 13  1  0  0  0  0
 13 14  2  0  0  0  0
 13 28  1  0  0  0  0
 14 15  1  0  0  0  0
 14 29  1  0  0  0  0
 15 30  1  0  0  0  0
 15 31  1  0  0  0  0
 15 32  1  0  0  0  0
M  END
$$$$
