ZINC06094354
 OpenBabel08292219463D

 47 51  0  0  1  0  0  0  0  0999 V2000
   -0.1123    1.3158    0.6481 C   0  0  0  0  0  0  0  0  0  0  0  0
    1.0043    2.0477    0.2987 C   0  0  0  0  0  0  0  0  0  0  0  0
    2.1941    1.4173   -0.0553 C   0  0  0  0  0  0  0  0  0  0  0  0
    2.2561    0.0435   -0.0430 C   0  0  0  0  0  0  0  0  0  0  0  0
    1.1293   -0.7038    0.3158 C   0  0  0  0  0  0  0  0  0  0  0  0
   -0.0605   -0.0630    0.6551 C   0  0  0  0  0  0  0  0  0  0  0  0
    1.2184   -2.1790    0.3526 C   0  0  0  0  0  0  0  0  0  0  0  0
    0.2081   -2.8520    0.4143 O   0  0  0  0  0  0  0  0  0  0  0  0
    2.4266   -2.7717    0.3168 N   0  0  0  0  0  0  0  0  0  0  0  0
    3.6483   -1.9734    0.3999 C   0  0  0  0  0  0  0  0  0  0  0  0
    3.5147   -0.6935   -0.4226 C   0  0  2  0  0  0  0  0  0  0  0  0
    3.4819   -0.9450   -1.4827 H   0  0  0  0  0  0  0  0  0  0  0  0
    4.7225    0.2078   -0.1527 C   0  0  0  0  0  0  0  0  0  0  0  0
    4.5528    1.5037   -0.9415 C   0  0  0  0  0  0  0  0  0  0  0  0
    3.3534    2.2878   -0.4428 C   0  0  0  0  0  0  0  0  0  0  0  0
    2.5177   -4.2287    0.1941 C   0  0  2  0  0  0  0  0  0  0  0  0
    2.1364   -4.5379   -0.7791 H   0  0  0  0  0  0  0  0  0  0  0  0
    1.6933   -4.8891    1.3014 C   0  0  0  0  0  0  0  0  0  0  0  0
    2.5572   -5.7231    2.1404 N   0  3  2  0  0  0  0  0  0  0  0  0
    3.5886   -4.9090    2.7877 C   0  0  0  0  0  0  0  0  0  0  0  0
    4.4760   -4.2491    1.7299 C   0  0  0  0  0  0  0  0  0  0  0  0
    3.9816   -4.6660    0.3353 C   0  0  1  0  0  0  0  0  0  0  0  0
    4.0409   -6.1963    0.2400 C   0  0  0  0  0  0  0  0  0  0  0  0
    3.1667   -6.7941    1.3486 C   0  0  0  0  0  0  0  0  0  0  0  0
   -1.0262    1.8227    0.9206 H   0  0  0  0  0  0  0  0  0  0  0  0
    0.9543    3.1266    0.2996 H   0  0  0  0  0  0  0  0  0  0  0  0
   -0.9338   -0.6400    0.9211 H   0  0  0  0  0  0  0  0  0  0  0  0
    3.8366   -1.7130    1.4414 H   0  0  0  0  0  0  0  0  0  0  0  0
    4.4858   -2.5584    0.0199 H   0  0  0  0  0  0  0  0  0  0  0  0
    4.7800    0.4329    0.9122 H   0  0  0  0  0  0  0  0  0  0  0  0
    5.6342   -0.2974   -0.4716 H   0  0  0  0  0  0  0  0  0  0  0  0
    5.4503    2.1118   -0.8290 H   0  0  0  0  0  0  0  0  0  0  0  0
    4.4120    1.2656   -1.9958 H   0  0  0  0  0  0  0  0  0  0  0  0
    3.0307    2.9707   -1.2288 H   0  0  0  0  0  0  0  0  0  0  0  0
    3.6553    2.8748    0.4246 H   0  0  0  0  0  0  0  0  0  0  0  0
    1.2285   -4.1177    1.9153 H   0  0  0  0  0  0  0  0  0  0  0  0
    0.9168   -5.5091    0.8533 H   0  0  0  0  0  0  0  0  0  0  0  0
    3.1132   -4.1375    3.3934 H   0  0  0  0  0  0  0  0  0  0  0  0
    4.2008   -5.5434    3.4286 H   0  0  0  0  0  0  0  0  0  0  0  0
    4.4174   -3.1651    1.8285 H   0  0  0  0  0  0  0  0  0  0  0  0
    5.5075   -4.5748    1.8636 H   0  0  0  0  0  0  0  0  0  0  0  0
    4.5911   -4.2010   -0.4396 H   0  0  0  0  0  0  0  0  0  0  0  0
    3.6662   -6.5165   -0.7322 H   0  0  0  0  0  0  0  0  0  0  0  0
    5.0708   -6.5305    0.3649 H   0  0  0  0  0  0  0  0  0  0  0  0
    3.7810   -7.4187    1.9972 H   0  0  0  0  0  0  0  0  0  0  0  0
    2.3822   -7.4034    0.8998 H   0  0  0  0  0  0  0  0  0  0  0  0
    1.9917   -6.1426    2.8631 H   0  0  0  0  0  0  0  0  0  0  0  0
  1  6  2  0  0  0  0
  1  2  1  0  0  0  0
  1 25  1  0  0  0  0
  2  3  2  0  0  0  0
  2 26  1  0  0  0  0
  3 15  1  0  0  0  0
  3  4  1  0  0  0  0
  4 11  1  0  0  0  0
  4  5  2  0  0  0  0
  5  6  1  0  0  0  0
  5  7  1  0  0  0  0
  6 27  1  0  0  0  0
  7  8  2  0  0  0  0
  7  9  1  0  0  0  0
  9 10  1  0  0  0  0
  9 16  1  0  0  0  0
 10 11  1  0  0  0  0
 10 28  1  0  0  0  0
 10 29  1  0  0  0  0
 11 12  1  6  0  0  0
 11 13  1  0  0  0  0
 13 14  1  0  0  0  0
 13 30  1  0  0  0  0
 13 31  1  0  0  0  0
 14 15  1  0  0  0  0
 14 32  1  0  0  0  0
 14 33  1  0  0  0  0
 15 34  1  0  0  0  0
 15 35  1  0  0  0  0
 16 17  1  6  0  0  0
 16 22  1  0  0  0  0
 16 18  1  0  0  0  0
 18 19  1  0  0  0  0
 18 36  1  0  0  0  0
 18 37  1  0  0  0  0
 19 24  1  0  0  0  0
 19 20  1  0  0  0  0
 19 47  1  1  0  0  0
 20 21  1  0  0  0  0
 20 38  1  0  0  0  0
 20 39  1  0  0  0  0
 21 22  1  0  0  0  0
 21 40  1  0  0  0  0
 21 41  1  0  0  0  0
 22 23  1  0  0  0  0
 22 42  1  6  0  0  0
 23 24  1  0  0  0  0
 23 43  1  0  0  0  0
 23 44  1  0  0  0  0
 24 45  1  0  0  0  0
 24 46  1  0  0  0  0
M  CHG  1  19   1
M  END
$$$$
