ZINC03813078
 OpenBabel08292219463D

 56 57  0  0  1  0  0  0  0  0999 V2000
   -0.0187    1.5258    0.0104 C   0  0  0  0  0  0  0  0  0  0  0  0
    0.0021   -0.0041    0.0020 C   0  0  0  0  0  0  0  0  0  0  0  0
   -1.4333   -0.5336    0.0129 C   0  0  0  0  0  0  0  0  0  0  0  0
   -1.4126   -2.0635    0.0045 C   0  0  0  0  0  0  0  0  0  0  0  0
   -2.8479   -2.5931    0.0153 C   0  0  0  0  0  0  0  0  0  0  0  0
   -2.8272   -4.1229    0.0069 C   0  0  1  0  0  0  0  0  0  0  0  0
   -2.2249   -4.4827    0.8411 H   0  0  0  0  0  0  0  0  0  0  0  0
   -4.2344   -4.6451    0.1414 C   0  0  0  0  0  0  0  0  0  0  0  0
   -4.7117   -5.4786   -0.7495 C   0  0  0  0  0  0  0  0  0  0  0  0
   -6.1189   -6.0008   -0.6150 C   0  0  1  0  0  0  0  0  0  0  0  0
   -6.5902   -5.5714    0.2690 H   0  0  0  0  0  0  0  0  0  0  0  0
   -6.9311   -5.6397   -1.8666 C   0  0  1  0  0  0  0  0  0  0  0  0
   -6.3044   -5.0916   -2.5701 H   0  0  0  0  0  0  0  0  0  0  0  0
   -7.3985   -6.9583   -2.5003 C   0  0  0  0  0  0  0  0  0  0  0  0
   -6.4954   -8.0587   -1.9130 C   0  0  1  0  0  0  0  0  0  0  0  0
   -5.6312   -8.2709   -2.5425 H   0  0  0  0  0  0  0  0  0  0  0  0
   -6.0987   -7.5309   -0.5037 C   0  0  2  0  0  0  0  0  0  0  0  0
   -5.1377   -7.9141   -0.1606 H   0  0  0  0  0  0  0  0  0  0  0  0
   -7.2873   -7.9999    0.3628 C   0  0  0  0  0  0  0  0  0  0  0  0
   -7.9777   -9.0528   -0.4788 C   0  0  0  0  0  0  0  0  0  0  0  0
   -9.0733   -9.7006   -0.1401 C   0  0  0  0  0  0  0  0  0  0  0  0
   -9.6599  -10.7284   -1.0731 C   0  0  0  0  0  0  0  0  0  0  0  0
   -9.8124  -12.0596   -0.3346 C   0  0  0  0  0  0  0  0  0  0  0  0
  -10.4080  -13.1031   -1.2818 C   0  0  0  0  0  0  0  0  0  0  0  0
  -10.5581  -14.4143   -0.5544 C   0  0  0  0  0  0  0  0  0  0  0  0
  -10.2201  -14.5057    0.6135 O   0  0  0  0  0  0  0  0  0  0  0  0
  -11.0177  -15.3837   -1.1337 O   0  0  0  0  0  1  0  0  0  0  0  0
   -7.2907   -9.2264   -1.6561 O   0  0  0  0  0  0  0  0  0  0  0  0
   -8.0608   -4.8448   -1.5006 O   0  0  0  0  0  0  0  0  0  0  0  0
   -2.2631   -4.5849   -1.2221 O   0  0  0  0  0  0  0  0  0  0  0  0
    1.0039    1.9031    0.0027 H   0  0  0  0  0  0  0  0  0  0  0  0
   -0.5459    1.8868   -0.8726 H   0  0  0  0  0  0  0  0  0  0  0  0
   -0.5289    1.8773    0.9072 H   0  0  0  0  0  0  0  0  0  0  0  0
    0.5123   -0.3556   -0.8948 H   0  0  0  0  0  0  0  0  0  0  0  0
    0.5293   -0.3651    0.8851 H   0  0  0  0  0  0  0  0  0  0  0  0
   -1.9435   -0.1821    0.9097 H   0  0  0  0  0  0  0  0  0  0  0  0
   -1.9605   -0.1726   -0.8702 H   0  0  0  0  0  0  0  0  0  0  0  0
   -0.9024   -2.4150   -0.8923 H   0  0  0  0  0  0  0  0  0  0  0  0
   -0.8854   -2.4246    0.8875 H   0  0  0  0  0  0  0  0  0  0  0  0
   -3.3581   -2.2415    0.9121 H   0  0  0  0  0  0  0  0  0  0  0  0
   -3.3751   -2.2320   -0.8677 H   0  0  0  0  0  0  0  0  0  0  0  0
   -4.8494   -4.3322    0.9722 H   0  0  0  0  0  0  0  0  0  0  0  0
   -4.0967   -5.7915   -1.5803 H   0  0  0  0  0  0  0  0  0  0  0  0
   -8.4399   -7.1502   -2.2419 H   0  0  0  0  0  0  0  0  0  0  0  0
   -7.2820   -6.9159   -3.5833 H   0  0  0  0  0  0  0  0  0  0  0  0
   -6.9295   -8.4336    1.2966 H   0  0  0  0  0  0  0  0  0  0  0  0
   -7.9637   -7.1689    0.5627 H   0  0  0  0  0  0  0  0  0  0  0  0
   -9.5512   -9.4952    0.8064 H   0  0  0  0  0  0  0  0  0  0  0  0
  -10.6371  -10.3902   -1.4180 H   0  0  0  0  0  0  0  0  0  0  0  0
   -8.9985  -10.8615   -1.9292 H   0  0  0  0  0  0  0  0  0  0  0  0
   -8.8352  -12.3977    0.0104 H   0  0  0  0  0  0  0  0  0  0  0  0
  -10.4738  -11.9265    0.5215 H   0  0  0  0  0  0  0  0  0  0  0  0
  -11.3851  -12.7649   -1.6268 H   0  0  0  0  0  0  0  0  0  0  0  0
   -9.7466  -13.2362   -2.1379 H   0  0  0  0  0  0  0  0  0  0  0  0
   -8.6160   -4.5829   -2.2477 H   0  0  0  0  0  0  0  0  0  0  0  0
   -2.7489   -4.3018   -2.0088 H   0  0  0  0  0  0  0  0  0  0  0  0
  1  2  1  0  0  0  0
  1 31  1  0  0  0  0
  1 32  1  0  0  0  0
  1 33  1  0  0  0  0
  2  3  1  0  0  0  0
  2 34  1  0  0  0  0
  2 35  1  0  0  0  0
  3  4  1  0  0  0  0
  3 36  1  0  0  0  0
  3 37  1  0  0  0  0
  4  5  1  0  0  0  0
  4 38  1  0  0  0  0
  4 39  1  0  0  0  0
  5  6  1  0  0  0  0
  5 40  1  0  0  0  0
  5 41  1  0  0  0  0
  6  7  1  1  0  0  0
  6  8  1  0  0  0  0
  6 30  1  0  0  0  0
  8  9  2  0  0  0  0
  8 42  1  0  0  0  0
  9 10  1  0  0  0  0
  9 43  1  0  0  0  0
 10 11  1  1  0  0  0
 10 17  1  0  0  0  0
 10 12  1  0  0  0  0
 12 13  1  6  0  0  0
 12 14  1  0  0  0  0
 12 29  1  0  0  0  0
 14 15  1  0  0  0  0
 14 44  1  0  0  0  0
 14 45  1  0  0  0  0
 15 16  1  6  0  0  0
 15 28  1  0  0  0  0
 15 17  1  0  0  0  0
 17 18  1  1  0  0  0
 17 19  1  0  0  0  0
 19 20  1  0  0  0  0
 19 46  1  0  0  0  0
 19 47  1  0  0  0  0
 20 21  2  0  0  0  0
 20 28  1  0  0  0  0
 21 22  1  0  0  0  0
 21 48  1  0  0  0  0
 22 23  1  0  0  0  0
 22 49  1  0  0  0  0
 22 50  1  0  0  0  0
 23 24  1  0  0  0  0
 23 51  1  0  0  0  0
 23 52  1  0  0  0  0
 24 25  1  0  0  0  0
 24 53  1  0  0  0  0
 24 54  1  0  0  0  0
 25 26  2  0  0  0  0
 25 27  1  0  0  0  0
 29 55  1  0  0  0  0
 30 56  1  0  0  0  0
M  END
$$$$
