ZINC03792789
 OpenBabel08292219463D

 49 49  0  0  0  0  0  0  0  0999 V2000
   -2.4201   -1.5528   -2.6432 C   0  0  0  0  0  0  0  0  0  0  0  0
   -1.2190   -1.5314   -1.7332 C   0  0  0  0  0  0  0  0  0  0  0  0
   -1.2029   -0.6563   -0.7418 C   0  0  0  0  0  0  0  0  0  0  0  0
   -0.0681   -0.5214    0.2316 C   0  0  0  0  0  0  0  0  0  0  0  0
    0.8172   -1.7684    0.1843 C   0  0  0  0  0  0  0  0  0  0  0  0
    1.1655   -2.0636   -1.2797 C   0  0  0  0  0  0  0  0  0  0  0  0
   -0.1112   -2.5086   -1.9997 C   0  0  0  0  0  0  0  0  0  0  0  0
    0.7675    0.7079   -0.1308 C   0  0  0  0  0  0  0  0  0  0  0  0
   -0.6295   -0.3512    1.6446 C   0  0  0  0  0  0  0  0  0  0  0  0
   -2.3201    0.2030   -0.5899 C   0  0  0  0  0  0  0  0  0  0  0  0
   -3.5624   -0.3211   -0.4200 C   0  0  0  0  0  0  0  0  0  0  0  0
   -4.6573    0.5283   -0.1833 C   0  0  0  0  0  0  0  0  0  0  0  0
   -5.9050    0.0019   -0.0126 C   0  0  0  0  0  0  0  0  0  0  0  0
   -6.9968    0.8488    0.2234 C   0  0  0  0  0  0  0  0  0  0  0  0
   -8.2553    0.3179    0.3955 C   0  0  0  0  0  0  0  0  0  0  0  0
   -9.3462    1.1641    0.6314 C   0  0  0  0  0  0  0  0  0  0  0  0
  -10.5794    0.6304    0.9298 C   0  0  0  0  0  0  0  0  0  0  0  0
  -10.7006   -0.7382    1.2200 C   0  0  0  0  0  0  0  0  0  0  0  0
   -9.6079   -1.4940    1.3389 O   0  0  0  0  0  0  0  0  0  0  0  0
  -11.9083   -1.2823    1.3766 O   0  0  0  0  0  1  0  0  0  0  0  0
   -9.1697    2.6590    0.5584 C   0  0  0  0  0  0  0  0  0  0  0  0
   -4.4534    2.0200   -0.1179 C   0  0  0  0  0  0  0  0  0  0  0  0
   -2.2469   -2.2569   -3.4570 H   0  0  0  0  0  0  0  0  0  0  0  0
   -3.2993   -1.8607   -2.0772 H   0  0  0  0  0  0  0  0  0  0  0  0
   -2.5828   -0.5562   -3.0535 H   0  0  0  0  0  0  0  0  0  0  0  0
    1.7320   -1.5896    0.7494 H   0  0  0  0  0  0  0  0  0  0  0  0
    0.2798   -2.6154    0.6107 H   0  0  0  0  0  0  0  0  0  0  0  0
    1.5612   -1.1637   -1.7506 H   0  0  0  0  0  0  0  0  0  0  0  0
    1.9074   -2.8609   -1.3260 H   0  0  0  0  0  0  0  0  0  0  0  0
   -0.4062   -3.4954   -1.6430 H   0  0  0  0  0  0  0  0  0  0  0  0
    0.0788   -2.5559   -3.0720 H   0  0  0  0  0  0  0  0  0  0  0  0
    0.1412    1.5990   -0.0861 H   0  0  0  0  0  0  0  0  0  0  0  0
    1.5921    0.8076    0.5750 H   0  0  0  0  0  0  0  0  0  0  0  0
    1.1644    0.5931   -1.1395 H   0  0  0  0  0  0  0  0  0  0  0  0
   -1.1585   -1.2582    1.9372 H   0  0  0  0  0  0  0  0  0  0  0  0
    0.1888   -0.1672    2.3409 H   0  0  0  0  0  0  0  0  0  0  0  0
   -1.3186    0.4931    1.6626 H   0  0  0  0  0  0  0  0  0  0  0  0
   -2.1839    1.2742   -0.6092 H   0  0  0  0  0  0  0  0  0  0  0  0
   -3.7085   -1.3902   -0.4668 H   0  0  0  0  0  0  0  0  0  0  0  0
   -6.0511   -1.0672   -0.0594 H   0  0  0  0  0  0  0  0  0  0  0  0
   -6.8507    1.9179    0.2702 H   0  0  0  0  0  0  0  0  0  0  0  0
   -8.4014   -0.7512    0.3487 H   0  0  0  0  0  0  0  0  0  0  0  0
  -11.4538    1.2642    0.9407 H   0  0  0  0  0  0  0  0  0  0  0  0
   -9.3601    2.9981   -0.4598 H   0  0  0  0  0  0  0  0  0  0  0  0
   -9.8713    3.1413    1.2391 H   0  0  0  0  0  0  0  0  0  0  0  0
   -8.1502    2.9188    0.8433 H   0  0  0  0  0  0  0  0  0  0  0  0
   -4.5710    2.4467   -1.1140 H   0  0  0  0  0  0  0  0  0  0  0  0
   -5.1908    2.4584    0.5545 H   0  0  0  0  0  0  0  0  0  0  0  0
   -3.4510    2.2338    0.2530 H   0  0  0  0  0  0  0  0  0  0  0  0
  1  2  1  0  0  0  0
  1 23  1  0  0  0  0
  1 24  1  0  0  0  0
  1 25  1  0  0  0  0
  2  7  1  0  0  0  0
  2  3  2  0  0  0  0
  3  4  1  0  0  0  0
  3 10  1  0  0  0  0
  4  5  1  0  0  0  0
  4  8  1  0  0  0  0
  4  9  1  0  0  0  0
  5  6  1  0  0  0  0
  5 26  1  0  0  0  0
  5 27  1  0  0  0  0
  6  7  1  0  0  0  0
  6 28  1  0  0  0  0
  6 29  1  0  0  0  0
  7 30  1  0  0  0  0
  7 31  1  0  0  0  0
  8 32  1  0  0  0  0
  8 33  1  0  0  0  0
  8 34  1  0  0  0  0
  9 35  1  0  0  0  0
  9 36  1  0  0  0  0
  9 37  1  0  0  0  0
 10 11  2  0  0  0  0
 10 38  1  0  0  0  0
 11 12  1  0  0  0  0
 11 39  1  0  0  0  0
 12 13  2  0  0  0  0
 12 22  1  0  0  0  0
 13 14  1  0  0  0  0
 13 40  1  0  0  0  0
 14 15  2  0  0  0  0
 14 41  1  0  0  0  0
 15 16  1  0  0  0  0
 15 42  1  0  0  0  0
 16 17  2  0  0  0  0
 16 21  1  0  0  0  0
 17 18  1  0  0  0  0
 17 43  1  0  0  0  0
 18 19  2  0  0  0  0
 18 20  1  0  0  0  0
 21 44  1  0  0  0  0
 21 45  1  0  0  0  0
 21 46  1  0  0  0  0
 22 47  1  0  0  0  0
 22 48  1  0  0  0  0
 22 49  1  0  0  0  0
M  END
$$$$
