ZINC03810860
 OpenBabel08292219463D

 51 54  0  0  1  0  0  0  0  0999 V2000
   -0.0167    1.3784    0.0096 C   0  0  0  0  0  0  0  0  0  0  0  0
    1.1695    2.0865    0.0021 C   0  0  0  0  0  0  0  0  0  0  0  0
    2.3802    1.4093   -0.0131 C   0  0  0  0  0  0  0  0  0  0  0  0
    2.3963    0.0221   -0.0206 C   0  0  0  0  0  0  0  0  0  0  0  0
    1.2074   -0.6814   -0.0130 C   0  0  0  0  0  0  0  0  0  0  0  0
    0.0021   -0.0041    0.0020 C   0  0  0  0  0  0  0  0  0  0  0  0
   -1.2934   -0.7740    0.0107 C   0  0  2  0  0  0  0  0  0  0  0  0
   -2.1029   -0.2310   -0.4771 H   0  0  0  0  0  0  0  0  0  0  0  0
   -1.6717   -1.2934    1.3979 C   0  0  2  0  0  0  0  0  0  0  0  0
   -0.9428   -1.0690    2.1766 H   0  0  0  0  0  0  0  0  0  0  0  0
   -1.4784   -2.6300    0.7322 C   0  0  0  0  0  0  0  0  0  0  0  0
   -1.5850   -3.7643    1.1485 O   0  0  0  0  0  0  0  0  0  0  0  0
   -1.1478   -2.1460   -0.4775 N   0  0  0  0  0  0  0  0  0  0  0  0
   -0.8037   -2.7223   -1.7064 C   0  0  0  0  0  0  0  0  0  0  0  0
   -0.5034   -1.9130   -2.7940 C   0  0  0  0  0  0  0  0  0  0  0  0
   -0.1643   -2.4833   -4.0052 C   0  0  0  0  0  0  0  0  0  0  0  0
   -0.1240   -3.8613   -4.1356 C   0  0  0  0  0  0  0  0  0  0  0  0
   -0.4232   -4.6703   -3.0523 C   0  0  0  0  0  0  0  0  0  0  0  0
   -0.7568   -4.1038   -1.8376 C   0  0  0  0  0  0  0  0  0  0  0  0
    0.2071   -4.4173   -5.3216 F   0  0  0  0  0  0  0  0  0  0  0  0
   -3.1143   -0.9958    1.8119 C   0  0  0  0  0  0  0  0  0  0  0  0
   -3.3346   -1.4505    3.2561 C   0  0  0  0  0  0  0  0  0  0  0  0
   -4.7771   -1.1529    3.6700 C   0  0  1  0  0  0  0  0  0  0  0  0
   -5.4619   -1.6158    2.9594 H   0  0  0  0  0  0  0  0  0  0  0  0
   -5.0297   -1.7104    5.0471 C   0  0  0  0  0  0  0  0  0  0  0  0
   -4.7010   -0.9659    6.1646 C   0  0  0  0  0  0  0  0  0  0  0  0
   -4.9327   -1.4759    7.4280 C   0  0  0  0  0  0  0  0  0  0  0  0
   -5.4941   -2.7331    7.5743 C   0  0  0  0  0  0  0  0  0  0  0  0
   -5.8229   -3.4778    6.4543 C   0  0  0  0  0  0  0  0  0  0  0  0
   -5.5952   -2.9636    5.1919 C   0  0  0  0  0  0  0  0  0  0  0  0
   -5.7206   -3.2329    8.8088 F   0  0  0  0  0  0  0  0  0  0  0  0
   -4.9872    0.2605    3.6824 O   0  0  0  0  0  0  0  0  0  0  0  0
    3.5484    2.1036   -0.0209 O   0  0  0  0  0  0  0  0  0  0  0  0
   -0.9594    1.9052    0.0259 H   0  0  0  0  0  0  0  0  0  0  0  0
    1.1543    3.1664    0.0076 H   0  0  0  0  0  0  0  0  0  0  0  0
    3.3375   -0.5074   -0.0328 H   0  0  0  0  0  0  0  0  0  0  0  0
    1.2194   -1.7613   -0.0189 H   0  0  0  0  0  0  0  0  0  0  0  0
   -0.5354   -0.8382   -2.6929 H   0  0  0  0  0  0  0  0  0  0  0  0
    0.0694   -1.8542   -4.8514 H   0  0  0  0  0  0  0  0  0  0  0  0
   -0.3916   -5.7448   -3.1561 H   0  0  0  0  0  0  0  0  0  0  0  0
   -0.9856   -4.7350   -0.9917 H   0  0  0  0  0  0  0  0  0  0  0  0
   -3.3005    0.0754    1.7358 H   0  0  0  0  0  0  0  0  0  0  0  0
   -3.7989   -1.5312    1.1540 H   0  0  0  0  0  0  0  0  0  0  0  0
   -3.1484   -2.5217    3.3321 H   0  0  0  0  0  0  0  0  0  0  0  0
   -2.6500   -0.9151    3.9139 H   0  0  0  0  0  0  0  0  0  0  0  0
   -4.2628    0.0145    6.0503 H   0  0  0  0  0  0  0  0  0  0  0  0
   -4.6755   -0.8943    8.3009 H   0  0  0  0  0  0  0  0  0  0  0  0
   -6.2606   -4.4587    6.5672 H   0  0  0  0  0  0  0  0  0  0  0  0
   -5.8557   -3.5424    4.3182 H   0  0  0  0  0  0  0  0  0  0  0  0
   -4.4105    0.7385    4.2940 H   0  0  0  0  0  0  0  0  0  0  0  0
    3.8951    2.3001    0.8601 H   0  0  0  0  0  0  0  0  0  0  0  0
  1  6  2  0  0  0  0
  1  2  1  0  0  0  0
  1 34  1  0  0  0  0
  2  3  2  0  0  0  0
  2 35  1  0  0  0  0
  3  4  1  0  0  0  0
  3 33  1  0  0  0  0
  4  5  2  0  0  0  0
  4 36  1  0  0  0  0
  5  6  1  0  0  0  0
  5 37  1  0  0  0  0
  6  7  1  0  0  0  0
  7  8  1  6  0  0  0
  7 13  1  0  0  0  0
  7  9  1  0  0  0  0
  9 10  1  1  0  0  0
  9 11  1  0  0  0  0
  9 21  1  0  0  0  0
 11 12  2  0  0  0  0
 11 13  1  0  0  0  0
 13 14  1  0  0  0  0
 14 19  2  0  0  0  0
 14 15  1  0  0  0  0
 15 16  2  0  0  0  0
 15 38  1  0  0  0  0
 16 17  1  0  0  0  0
 16 39  1  0  0  0  0
 17 18  2  0  0  0  0
 17 20  1  0  0  0  0
 18 19  1  0  0  0  0
 18 40  1  0  0  0  0
 19 41  1  0  0  0  0
 21 22  1  0  0  0  0
 21 42  1  0  0  0  0
 21 43  1  0  0  0  0
 22 23  1  0  0  0  0
 22 44  1  0  0  0  0
 22 45  1  0  0  0  0
 23 24  1  6  0  0  0
 23 25  1  0  0  0  0
 23 32  1  0  0  0  0
 25 30  2  0  0  0  0
 25 26  1  0  0  0  0
 26 27  2  0  0  0  0
 26 46  1  0  0  0  0
 27 28  1  0  0  0  0
 27 47  1  0  0  0  0
 28 29  2  0  0  0  0
 28 31  1  0  0  0  0
 29 30  1  0  0  0  0
 29 48  1  0  0  0  0
 30 49  1  0  0  0  0
 32 50  1  0  0  0  0
 33 51  1  0  0  0  0
M  END
$$$$
