ZINC01530638
 OpenBabel08292219463D

 41 42  0  0  1  0  0  0  0  0999 V2000
   -0.0117    1.2584    0.2941 C   0  0  0  0  0  0  0  0  0  0  0  0
    0.0187   -0.2059    0.1807 N   0  3  0  0  0  0  0  0  0  0  0  0
    0.6940   -0.5864   -1.0672 C   0  0  0  0  0  0  0  0  0  0  0  0
    0.7257   -2.1115   -1.1853 C   0  0  0  0  0  0  0  0  0  0  0  0
    1.4290   -2.5079   -2.4850 C   0  0  2  0  0  0  0  0  0  0  0  0
    0.9406   -2.0169   -3.3267 H   0  0  0  0  0  0  0  0  0  0  0  0
    1.3524   -4.0025   -2.6620 C   0  0  0  0  0  0  0  0  0  0  0  0
    2.2239   -4.8256   -1.9736 C   0  0  0  0  0  0  0  0  0  0  0  0
    2.1536   -6.1966   -2.1360 C   0  0  0  0  0  0  0  0  0  0  0  0
    1.2115   -6.7445   -2.9863 C   0  0  0  0  0  0  0  0  0  0  0  0
    0.3394   -5.9215   -3.6740 C   0  0  0  0  0  0  0  0  0  0  0  0
    0.4069   -4.5507   -3.5084 C   0  0  0  0  0  0  0  0  0  0  0  0
    2.7987   -2.1046   -2.4276 O   0  0  0  0  0  0  0  0  0  0  0  0
    3.1290   -0.9498   -3.0632 C   0  0  0  0  0  0  0  0  0  0  0  0
    4.4578   -0.5614   -3.1526 C   0  0  0  0  0  0  0  0  0  0  0  0
    4.7911    0.6128   -3.7997 C   0  0  0  0  0  0  0  0  0  0  0  0
    3.8014    1.4009   -4.3576 C   0  0  0  0  0  0  0  0  0  0  0  0
    2.4763    1.0162   -4.2695 C   0  0  0  0  0  0  0  0  0  0  0  0
    2.1384   -0.1601   -3.6288 C   0  0  0  0  0  0  0  0  0  0  0  0
    4.1677    2.6815   -5.0625 C   0  0  0  0  0  0  0  0  0  0  0  0
    4.3972    2.4189   -6.4174 F   0  0  0  0  0  0  0  0  0  0  0  0
    3.1196    3.5994   -4.9365 F   0  0  0  0  0  0  0  0  0  0  0  0
    5.3265    3.2150   -4.4881 F   0  0  0  0  0  0  0  0  0  0  0  0
    1.0080    1.6436    0.3006 H   0  0  0  0  0  0  0  0  0  0  0  0
   -0.5529    1.6774   -0.5543 H   0  0  0  0  0  0  0  0  0  0  0  0
   -0.5127    1.5408    1.2200 H   0  0  0  0  0  0  0  0  0  0  0  0
    0.5197   -0.5937    0.9660 H   0  0  0  0  0  0  0  0  0  0  0  0
    0.1528   -0.1675   -1.9155 H   0  0  0  0  0  0  0  0  0  0  0  0
    1.7136   -0.2013   -1.0606 H   0  0  0  0  0  0  0  0  0  0  0  0
    1.2669   -2.5305   -0.3370 H   0  0  0  0  0  0  0  0  0  0  0  0
   -0.2940   -2.4967   -1.1919 H   0  0  0  0  0  0  0  0  0  0  0  0
    2.9600   -4.3975   -1.3092 H   0  0  0  0  0  0  0  0  0  0  0  0
    2.8350   -6.8396   -1.5987 H   0  0  0  0  0  0  0  0  0  0  0  0
    1.1571   -7.8156   -3.1137 H   0  0  0  0  0  0  0  0  0  0  0  0
   -0.3964   -6.3495   -4.3386 H   0  0  0  0  0  0  0  0  0  0  0  0
   -0.2770   -3.9079   -4.0428 H   0  0  0  0  0  0  0  0  0  0  0  0
    5.2311   -1.1763   -2.7163 H   0  0  0  0  0  0  0  0  0  0  0  0
    5.8254    0.9155   -3.8695 H   0  0  0  0  0  0  0  0  0  0  0  0
    1.7051    1.6337   -4.7058 H   0  0  0  0  0  0  0  0  0  0  0  0
    1.1036   -0.4624   -3.5641 H   0  0  0  0  0  0  0  0  0  0  0  0
   -0.9251   -0.5624    0.1746 H   0  0  0  0  0  0  0  0  0  0  0  0
  1  2  1  0  0  0  0
  1 24  1  0  0  0  0
  1 25  1  0  0  0  0
  1 26  1  0  0  0  0
  2  3  1  0  0  0  0
  2 27  1  0  0  0  0
  2 41  1  0  0  0  0
  3  4  1  0  0  0  0
  3 28  1  0  0  0  0
  3 29  1  0  0  0  0
  4  5  1  0  0  0  0
  4 30  1  0  0  0  0
  4 31  1  0  0  0  0
  5  6  1  6  0  0  0
  5  7  1  0  0  0  0
  5 13  1  0  0  0  0
  7 12  2  0  0  0  0
  7  8  1  0  0  0  0
  8  9  2  0  0  0  0
  8 32  1  0  0  0  0
  9 10  1  0  0  0  0
  9 33  1  0  0  0  0
 10 11  2  0  0  0  0
 10 34  1  0  0  0  0
 11 12  1  0  0  0  0
 11 35  1  0  0  0  0
 12 36  1  0  0  0  0
 13 14  1  0  0  0  0
 14 19  2  0  0  0  0
 14 15  1  0  0  0  0
 15 16  2  0  0  0  0
 15 37  1  0  0  0  0
 16 17  1  0  0  0  0
 16 38  1  0  0  0  0
 17 18  2  0  0  0  0
 17 20  1  0  0  0  0
 18 19  1  0  0  0  0
 18 39  1  0  0  0  0
 19 40  1  0  0  0  0
 20 21  1  0  0  0  0
 20 22  1  0  0  0  0
 20 23  1  0  0  0  0
M  CHG  1   2   1
M  END
$$$$
