ZINC52509463
 OpenBabel08292219463D

 57 59  0  0  0  0  0  0  0  0999 V2000
   -0.9109    1.3970   -0.7682 C   0  0  0  0  0  0  0  0  0  0  0  0
   -0.5706   -0.0655   -0.4748 C   0  0  0  0  0  0  0  0  0  0  0  0
   -0.0672   -0.1932    0.9643 C   0  0  0  0  0  0  0  0  0  0  0  0
   -1.8224   -0.9265   -0.6556 C   0  0  0  0  0  0  0  0  0  0  0  0
    0.5017   -0.5322   -1.4253 C   0  0  0  0  0  0  0  0  0  0  0  0
    1.1204    0.3727   -2.2663 C   0  0  0  0  0  0  0  0  0  0  0  0
    2.1039   -0.0520   -3.1390 C   0  0  0  0  0  0  0  0  0  0  0  0
    2.4734   -1.3895   -3.1734 C   0  0  0  0  0  0  0  0  0  0  0  0
    1.8552   -2.3003   -2.3315 C   0  0  0  0  0  0  0  0  0  0  0  0
    0.8714   -1.8709   -1.4514 C   0  0  0  0  0  0  0  0  0  0  0  0
    0.2491   -2.7860   -0.5962 N   0  0  0  0  0  0  0  0  0  0  0  0
    0.1925   -4.0903   -0.9310 C   0  0  0  0  0  0  0  0  0  0  0  0
    0.7349   -4.4815   -1.9471 O   0  0  0  0  0  0  0  0  0  0  0  0
   -0.5252   -5.0408   -0.0675 C   0  0  0  0  0  0  0  0  0  0  0  0
   -0.4680   -6.3964   -0.3174 C   0  0  0  0  0  0  0  0  0  0  0  0
   -1.1084   -7.2909    0.4471 N   0  0  0  0  0  0  0  0  0  0  0  0
   -1.0319   -8.2317    0.2238 H   0  0  0  0  0  0  0  0  0  0  0  0
   -1.8707   -6.9315    1.5373 C   0  0  0  0  0  0  0  0  0  0  0  0
   -2.5161   -7.9018    2.3001 C   0  0  0  0  0  0  0  0  0  0  0  0
   -3.2749   -7.5297    3.3877 C   0  0  0  0  0  0  0  0  0  0  0  0
   -3.4064   -6.1929    3.7368 C   0  0  0  0  0  0  0  0  0  0  0  0
   -2.7770   -5.2167    2.9969 C   0  0  0  0  0  0  0  0  0  0  0  0
   -2.0053   -5.5788    1.8927 C   0  0  0  0  0  0  0  0  0  0  0  0
   -1.3113   -4.5621    1.0807 C   0  0  0  0  0  0  0  0  0  0  0  0
   -1.3889   -3.3754    1.3466 O   0  0  0  0  0  0  0  0  0  0  0  0
    3.4406   -1.8057   -4.0326 O   0  0  0  0  0  0  0  0  0  0  0  0
    2.7759    0.9383   -4.0549 C   0  0  0  0  0  0  0  0  0  0  0  0
    2.1889    2.3313   -3.8186 C   0  0  0  0  0  0  0  0  0  0  0  0
    4.2782    0.9621   -3.7660 C   0  0  0  0  0  0  0  0  0  0  0  0
    2.5428    0.5267   -5.5100 C   0  0  0  0  0  0  0  0  0  0  0  0
   -0.0191    2.0104   -0.6395 H   0  0  0  0  0  0  0  0  0  0  0  0
   -1.2695    1.4880   -1.7935 H   0  0  0  0  0  0  0  0  0  0  0  0
   -1.6864    1.7346   -0.0808 H   0  0  0  0  0  0  0  0  0  0  0  0
   -0.8075    0.2247    1.6466 H   0  0  0  0  0  0  0  0  0  0  0  0
    0.0926   -1.2450    1.2014 H   0  0  0  0  0  0  0  0  0  0  0  0
    0.8719    0.3499    1.0703 H   0  0  0  0  0  0  0  0  0  0  0  0
   -2.1342   -0.8996   -1.6997 H   0  0  0  0  0  0  0  0  0  0  0  0
   -1.6007   -1.9545   -0.3689 H   0  0  0  0  0  0  0  0  0  0  0  0
   -2.6239   -0.5388   -0.0269 H   0  0  0  0  0  0  0  0  0  0  0  0
    0.8345    1.4139   -2.2418 H   0  0  0  0  0  0  0  0  0  0  0  0
    2.1415   -3.3413   -2.3570 H   0  0  0  0  0  0  0  0  0  0  0  0
   -0.1417   -2.4819    0.2379 H   0  0  0  0  0  0  0  0  0  0  0  0
    0.1122   -6.7482   -1.1576 H   0  0  0  0  0  0  0  0  0  0  0  0
   -2.4220   -8.9454    2.0386 H   0  0  0  0  0  0  0  0  0  0  0  0
   -3.7733   -8.2866    3.9752 H   0  0  0  0  0  0  0  0  0  0  0  0
   -4.0051   -5.9170    4.5922 H   0  0  0  0  0  0  0  0  0  0  0  0
   -2.8807   -4.1768    3.2697 H   0  0  0  0  0  0  0  0  0  0  0  0
    4.3343   -1.7725   -3.6648 H   0  0  0  0  0  0  0  0  0  0  0  0
    2.3550    2.6245   -2.7820 H   0  0  0  0  0  0  0  0  0  0  0  0
    2.6750    3.0475   -4.4811 H   0  0  0  0  0  0  0  0  0  0  0  0
    1.1187    2.3143   -4.0244 H   0  0  0  0  0  0  0  0  0  0  0  0
    4.6963   -0.0303   -3.9344 H   0  0  0  0  0  0  0  0  0  0  0  0
    4.7642    1.6783   -4.4285 H   0  0  0  0  0  0  0  0  0  0  0  0
    4.4442    1.2553   -2.7294 H   0  0  0  0  0  0  0  0  0  0  0  0
    1.4725    0.5097   -5.7157 H   0  0  0  0  0  0  0  0  0  0  0  0
    3.0288    1.2429   -6.1724 H   0  0  0  0  0  0  0  0  0  0  0  0
    2.9609   -0.4657   -5.6783 H   0  0  0  0  0  0  0  0  0  0  0  0
  1  2  1  0  0  0  0
  1 31  1  0  0  0  0
  1 32  1  0  0  0  0
  1 33  1  0  0  0  0
  2  3  1  0  0  0  0
  2  4  1  0  0  0  0
  2  5  1  0  0  0  0
  3 34  1  0  0  0  0
  3 35  1  0  0  0  0
  3 36  1  0  0  0  0
  4 37  1  0  0  0  0
  4 38  1  0  0  0  0
  4 39  1  0  0  0  0
  5 10  2  0  0  0  0
  5  6  1  0  0  0  0
  6  7  2  0  0  0  0
  6 40  1  0  0  0  0
  7  8  1  0  0  0  0
  7 27  1  0  0  0  0
  8  9  2  0  0  0  0
  8 26  1  0  0  0  0
  9 10  1  0  0  0  0
  9 41  1  0  0  0  0
 10 11  1  0  0  0  0
 11 12  1  0  0  0  0
 11 42  1  0  0  0  0
 12 13  2  0  0  0  0
 12 14  1  0  0  0  0
 14 24  1  0  0  0  0
 14 15  2  0  0  0  0
 15 16  1  0  0  0  0
 15 43  1  0  0  0  0
 16 17  1  0  0  0  0
 16 18  1  0  0  0  0
 18 23  2  0  0  0  0
 18 19  1  0  0  0  0
 19 20  2  0  0  0  0
 19 44  1  0  0  0  0
 20 21  1  0  0  0  0
 20 45  1  0  0  0  0
 21 22  2  0  0  0  0
 21 46  1  0  0  0  0
 22 23  1  0  0  0  0
 22 47  1  0  0  0  0
 23 24  1  0  0  0  0
 24 25  2  0  0  0  0
 26 48  1  0  0  0  0
 27 28  1  0  0  0  0
 27 29  1  0  0  0  0
 27 30  1  0  0  0  0
 28 49  1  0  0  0  0
 28 50  1  0  0  0  0
 28 51  1  0  0  0  0
 29 52  1  0  0  0  0
 29 53  1  0  0  0  0
 29 54  1  0  0  0  0
 30 55  1  0  0  0  0
 30 56  1  0  0  0  0
 30 57  1  0  0  0  0
M  END
$$$$
