ZINC64633718
 OpenBabel08292219463D

 64 65  0  0  1  0  0  0  0  0999 V2000
   -0.0187    1.5258    0.0104 C   0  0  0  0  0  0  0  0  0  0  0  0
    0.0021   -0.0041    0.0020 C   0  0  0  0  0  0  0  0  0  0  0  0
   -1.4230   -0.5774    0.1681 C   0  0  1  0  0  0  0  0  0  0  0  0
   -1.6921   -1.1102   -0.7439 H   0  0  0  0  0  0  0  0  0  0  0  0
   -1.5650   -1.4920    1.3032 N   0  0  0  0  0  0  0  0  0  0  0  0
   -0.6733   -1.1260    2.4432 C   0  0  2  0  0  0  0  0  0  0  0  0
   -1.0700   -0.2785    3.0021 H   0  0  0  0  0  0  0  0  0  0  0  0
    0.8482   -0.6610    1.5031 S   0  0  0  0  0  0  0  0  0  0  0  0
   -0.4197   -2.3241    3.3604 C   0  0  1  0  0  0  0  0  0  0  0  0
    0.1353   -3.0878    2.8155 H   0  0  0  0  0  0  0  0  0  0  0  0
    0.3805   -1.8797    4.5575 C   0  0  0  0  0  0  0  0  0  0  0  0
   -0.0744   -2.0117    5.6740 O   0  0  0  0  0  0  0  0  0  0  0  0
    1.6018   -1.3356    4.3875 N   0  0  0  0  0  0  0  0  0  0  0  0
    2.3798   -0.9036    5.5512 C   0  0  0  0  0  0  0  0  0  0  0  0
    3.7176   -0.3263    5.0846 C   0  0  0  0  0  0  0  0  0  0  0  0
    4.5301    0.1249    6.3000 C   0  0  0  0  0  0  0  0  0  0  0  0
    5.8680    0.7021    5.8334 C   0  0  0  0  0  0  0  0  0  0  0  0
    6.6805    1.1533    7.0488 C   0  0  2  0  0  0  0  0  0  0  0  0
    6.0895    1.8509    7.6423 H   0  0  0  0  0  0  0  0  0  0  0  0
    7.9431    1.8328    6.5849 C   0  0  0  0  0  0  0  0  0  0  0  0
    7.9510    3.0361    6.3888 O   0  0  0  0  0  0  0  0  0  0  0  0
    8.9566    1.1792    6.4058 O   0  0  0  0  0  1  0  0  0  0  0  0
    7.0263   -0.0159    7.8681 N   0  3  0  0  0  0  0  0  0  0  0  0
   -1.7008   -2.8768    3.8072 N   0  0  0  0  0  0  0  0  0  0  0  0
   -2.3549   -3.7690    3.0374 C   0  0  0  0  0  0  0  0  0  0  0  0
   -1.8831   -4.1143    1.9748 O   0  0  0  0  0  0  0  0  0  0  0  0
   -3.6727   -4.3376    3.4970 C   0  0  0  0  0  0  0  0  0  0  0  0
   -4.1910   -5.3037    2.4630 C   0  0  0  0  0  0  0  0  0  0  0  0
   -5.0010   -4.8507    1.4385 C   0  0  0  0  0  0  0  0  0  0  0  0
   -5.4764   -5.7369    0.4901 C   0  0  0  0  0  0  0  0  0  0  0  0
   -5.1414   -7.0759    0.5658 C   0  0  0  0  0  0  0  0  0  0  0  0
   -4.3306   -7.5286    1.5898 C   0  0  0  0  0  0  0  0  0  0  0  0
   -3.8517   -6.6418    2.5358 C   0  0  0  0  0  0  0  0  0  0  0  0
   -2.3838    0.5685    0.3550 C   0  0  0  0  0  0  0  0  0  0  0  0
   -2.9148    1.0831   -0.6144 O   0  0  0  0  0  0  0  0  0  0  0  0
   -2.6301    0.9809    1.4756 O   0  0  0  0  0  1  0  0  0  0  0  0
    0.6608   -0.5330   -1.2736 C   0  0  0  0  0  0  0  0  0  0  0  0
    1.0039    1.9031    0.0027 H   0  0  0  0  0  0  0  0  0  0  0  0
   -0.5459    1.8868   -0.8726 H   0  0  0  0  0  0  0  0  0  0  0  0
   -0.5289    1.8773    0.9072 H   0  0  0  0  0  0  0  0  0  0  0  0
   -2.5271   -1.5517    1.6013 H   0  0  0  0  0  0  0  0  0  0  0  0
    1.9657   -1.2300    3.4945 H   0  0  0  0  0  0  0  0  0  0  0  0
    1.8248   -0.1399    6.0961 H   0  0  0  0  0  0  0  0  0  0  0  0
    2.5604   -1.7571    6.2047 H   0  0  0  0  0  0  0  0  0  0  0  0
    4.2726   -1.0900    4.5397 H   0  0  0  0  0  0  0  0  0  0  0  0
    3.5370    0.5272    4.4312 H   0  0  0  0  0  0  0  0  0  0  0  0
    3.9751    0.8886    6.8449 H   0  0  0  0  0  0  0  0  0  0  0  0
    4.7108   -0.7286    6.9535 H   0  0  0  0  0  0  0  0  0  0  0  0
    6.4230   -0.0615    5.2885 H   0  0  0  0  0  0  0  0  0  0  0  0
    5.6873    1.5557    5.1800 H   0  0  0  0  0  0  0  0  0  0  0  0
    7.5621    0.2816    8.6696 H   0  0  0  0  0  0  0  0  0  0  0  0
    6.1809   -0.4709    8.1787 H   0  0  0  0  0  0  0  0  0  0  0  0
   -2.0781   -2.6007    4.6570 H   0  0  0  0  0  0  0  0  0  0  0  0
   -3.5329   -4.8592    4.4438 H   0  0  0  0  0  0  0  0  0  0  0  0
   -4.3908   -3.5285    3.6305 H   0  0  0  0  0  0  0  0  0  0  0  0
   -5.2628   -3.8046    1.3794 H   0  0  0  0  0  0  0  0  0  0  0  0
   -6.1099   -5.3831   -0.3099 H   0  0  0  0  0  0  0  0  0  0  0  0
   -5.5134   -7.7683   -0.1748 H   0  0  0  0  0  0  0  0  0  0  0  0
   -4.0691   -8.5748    1.6491 H   0  0  0  0  0  0  0  0  0  0  0  0
   -3.2152   -6.9948    3.3337 H   0  0  0  0  0  0  0  0  0  0  0  0
    1.6823   -0.1578   -1.3374 H   0  0  0  0  0  0  0  0  0  0  0  0
    0.6748   -1.6227   -1.2504 H   0  0  0  0  0  0  0  0  0  0  0  0
    0.0948   -0.1953   -2.1417 H   0  0  0  0  0  0  0  0  0  0  0  0
    7.5734   -0.6616    7.3187 H   0  0  0  0  0  0  0  0  0  0  0  0
  1  2  1  0  0  0  0
  1 38  1  0  0  0  0
  1 39  1  0  0  0  0
  1 40  1  0  0  0  0
  2  8  1  0  0  0  0
  2  3  1  0  0  0  0
  2 37  1  0  0  0  0
  3  4  1  6  0  0  0
  3  5  1  0  0  0  0
  3 34  1  0  0  0  0
  5  6  1  0  0  0  0
  5 41  1  0  0  0  0
  6  7  1  1  0  0  0
  6  8  1  0  0  0  0
  6  9  1  0  0  0  0
  9 10  1  6  0  0  0
  9 11  1  0  0  0  0
  9 24  1  0  0  0  0
 11 12  2  0  0  0  0
 11 13  1  0  0  0  0
 13 14  1  0  0  0  0
 13 42  1  0  0  0  0
 14 15  1  0  0  0  0
 14 43  1  0  0  0  0
 14 44  1  0  0  0  0
 15 16  1  0  0  0  0
 15 45  1  0  0  0  0
 15 46  1  0  0  0  0
 16 17  1  0  0  0  0
 16 47  1  0  0  0  0
 16 48  1  0  0  0  0
 17 18  1  0  0  0  0
 17 49  1  0  0  0  0
 17 50  1  0  0  0  0
 18 19  1  1  0  0  0
 18 20  1  0  0  0  0
 18 23  1  0  0  0  0
 20 21  2  0  0  0  0
 20 22  1  0  0  0  0
 23 51  1  0  0  0  0
 23 52  1  0  0  0  0
 23 64  1  0  0  0  0
 24 25  1  0  0  0  0
 24 53  1  0  0  0  0
 25 26  2  0  0  0  0
 25 27  1  0  0  0  0
 27 28  1  0  0  0  0
 27 54  1  0  0  0  0
 27 55  1  0  0  0  0
 28 33  2  0  0  0  0
 28 29  1  0  0  0  0
 29 30  2  0  0  0  0
 29 56  1  0  0  0  0
 30 31  1  0  0  0  0
 30 57  1  0  0  0  0
 31 32  2  0  0  0  0
 31 58  1  0  0  0  0
 32 33  1  0  0  0  0
 32 59  1  0  0  0  0
 33 60  1  0  0  0  0
 34 35  2  0  0  0  0
 34 36  1  0  0  0  0
 37 61  1  0  0  0  0
 37 62  1  0  0  0  0
 37 63  1  0  0  0  0
M  CHG  1  23   1
M  END
$$$$
