ZINC03778874
 OpenBabel08292219463D

 33 35  0  0  0  0  0  0  0  0999 V2000
   -0.0735    1.7256   -0.0870 C   0  0  0  0  0  0  0  0  0  0  0  0
    1.1714    2.3190   -0.0530 C   0  0  0  0  0  0  0  0  0  0  0  0
    2.3138    1.5384   -0.0590 C   0  0  0  0  0  0  0  0  0  0  0  0
    2.2165    0.1588   -0.0986 C   0  0  0  0  0  0  0  0  0  0  0  0
    0.9780   -0.4478   -0.1324 C   0  0  0  0  0  0  0  0  0  0  0  0
   -0.1790    0.3339   -0.1271 C   0  0  0  0  0  0  0  0  0  0  0  0
   -1.4680   -0.2890   -0.1621 C   0  0  0  0  0  0  0  0  0  0  0  0
   -2.4905   -0.7831   -0.1898 N   0  0  0  0  0  0  0  0  0  0  0  0
    3.6703    2.1939   -0.0227 C   0  0  0  0  0  0  0  0  0  0  0  0
    4.3645    1.8408    1.2675 C   0  0  0  0  0  0  0  0  0  0  0  0
    5.7439    1.9113    1.3489 C   0  0  0  0  0  0  0  0  0  0  0  0
    6.3858    1.5899    2.5269 C   0  0  0  0  0  0  0  0  0  0  0  0
    5.6401    1.1927    3.6386 C   0  0  0  0  0  0  0  0  0  0  0  0
    4.2484    1.1238    3.5494 C   0  0  0  0  0  0  0  0  0  0  0  0
    3.6191    1.4531    2.3668 C   0  0  0  0  0  0  0  0  0  0  0  0
    6.2998    0.8572    4.8645 C   0  0  0  0  0  0  0  0  0  0  0  0
    6.8231    0.5910    5.8370 N   0  0  0  0  0  0  0  0  0  0  0  0
    4.4718    1.7206   -1.1539 N   0  0  0  0  0  0  0  0  0  0  0  0
    5.1989    0.5913   -1.2096 C   0  0  0  0  0  0  0  0  0  0  0  0
    5.7642    0.5302   -2.3879 N   0  0  0  0  0  0  0  0  0  0  0  0
    5.4232    1.5976   -3.1088 C   0  0  0  0  0  0  0  0  0  0  0  0
    4.6283    2.3535   -2.3979 N   0  0  0  0  0  0  0  0  0  0  0  0
   -0.9644    2.3360   -0.0782 H   0  0  0  0  0  0  0  0  0  0  0  0
    1.2545    3.3954   -0.0220 H   0  0  0  0  0  0  0  0  0  0  0  0
    3.1123   -0.4445   -0.1034 H   0  0  0  0  0  0  0  0  0  0  0  0
    0.9035   -1.5248   -0.1637 H   0  0  0  0  0  0  0  0  0  0  0  0
    3.5530    3.2756   -0.0879 H   0  0  0  0  0  0  0  0  0  0  0  0
    6.3194    2.2183    0.4881 H   0  0  0  0  0  0  0  0  0  0  0  0
    7.4626    1.6450    2.5890 H   0  0  0  0  0  0  0  0  0  0  0  0
    3.6656    0.8174    4.4055 H   0  0  0  0  0  0  0  0  0  0  0  0
    2.5424    1.4041    2.2976 H   0  0  0  0  0  0  0  0  0  0  0  0
    5.2993   -0.1380   -0.4194 H   0  0  0  0  0  0  0  0  0  0  0  0
    5.7475    1.8028   -4.1183 H   0  0  0  0  0  0  0  0  0  0  0  0
  1  6  2  0  0  0  0
  1  2  1  0  0  0  0
  1 23  1  0  0  0  0
  2  3  2  0  0  0  0
  2 24  1  0  0  0  0
  3  4  1  0  0  0  0
  3  9  1  0  0  0  0
  4  5  2  0  0  0  0
  4 25  1  0  0  0  0
  5  6  1  0  0  0  0
  5 26  1  0  0  0  0
  6  7  1  0  0  0  0
  7  8  3  0  0  0  0
  9 10  1  0  0  0  0
  9 18  1  0  0  0  0
  9 27  1  0  0  0  0
 10 15  2  0  0  0  0
 10 11  1  0  0  0  0
 11 12  2  0  0  0  0
 11 28  1  0  0  0  0
 12 13  1  0  0  0  0
 12 29  1  0  0  0  0
 13 14  2  0  0  0  0
 13 16  1  0  0  0  0
 14 15  1  0  0  0  0
 14 30  1  0  0  0  0
 15 31  1  0  0  0  0
 16 17  3  0  0  0  0
 18 22  1  0  0  0  0
 18 19  1  0  0  0  0
 19 20  2  0  0  0  0
 19 32  1  0  0  0  0
 20 21  1  0  0  0  0
 21 22  2  0  0  0  0
 21 33  1  0  0  0  0
M  END
$$$$
