ZINC01420561
 OpenBabel08292219463D

 55 57  0  0  0  0  0  0  0  0999 V2000
   -0.3079    0.5006   -0.0815 C   0  0  0  0  0  0  0  0  0  0  0  0
   -0.5416   -1.0077   -0.1885 C   0  0  0  0  0  0  0  0  0  0  0  0
   -0.0852   -1.4819   -1.5018 N   0  3  0  0  0  0  0  0  0  0  0  0
    1.3715   -1.3204   -1.6017 C   0  0  0  0  0  0  0  0  0  0  0  0
    1.8284   -1.6779   -3.0174 C   0  0  0  0  0  0  0  0  0  0  0  0
   -0.4324   -2.9008   -1.6578 C   0  0  0  0  0  0  0  0  0  0  0  0
   -1.9545   -3.0540   -1.6787 C   0  0  0  0  0  0  0  0  0  0  0  0
   -2.3161   -4.5318   -1.8412 C   0  0  0  0  0  0  0  0  0  0  0  0
   -3.7736   -4.6786   -1.8612 N   0  0  0  0  0  0  0  0  0  0  0  0
   -4.4651   -4.6171   -3.0732 C   0  0  0  0  0  0  0  0  0  0  0  0
   -3.7814   -4.3473   -4.2519 C   0  0  0  0  0  0  0  0  0  0  0  0
   -4.4682   -4.2877   -5.4485 C   0  0  0  0  0  0  0  0  0  0  0  0
   -5.8350   -4.4959   -5.4742 C   0  0  0  0  0  0  0  0  0  0  0  0
   -6.5188   -4.7648   -4.3027 C   0  0  0  0  0  0  0  0  0  0  0  0
   -5.8373   -4.8315   -3.1034 C   0  0  0  0  0  0  0  0  0  0  0  0
   -4.5058   -4.8898   -0.6100 C   0  0  0  0  0  0  0  0  0  0  0  0
   -5.6241   -3.8389   -0.4446 C   0  0  0  0  0  0  0  0  0  0  0  0
   -6.7605   -4.5732    0.2342 C   0  0  0  0  0  0  0  0  0  0  0  0
   -7.8704   -4.0862    0.9042 C   0  0  0  0  0  0  0  0  0  0  0  0
   -8.7902   -4.9590    1.4514 C   0  0  0  0  0  0  0  0  0  0  0  0
   -8.6033   -6.3235    1.3305 C   0  0  0  0  0  0  0  0  0  0  0  0
   -7.4972   -6.8110    0.6627 C   0  0  0  0  0  0  0  0  0  0  0  0
   -6.5736   -5.9374    0.1132 C   0  0  0  0  0  0  0  0  0  0  0  0
   -5.2989   -6.2131   -0.6551 C   0  0  0  0  0  0  0  0  0  0  0  0
    0.7632    0.7023   -0.0686 H   0  0  0  0  0  0  0  0  0  0  0  0
   -0.7614    1.0002   -0.9376 H   0  0  0  0  0  0  0  0  0  0  0  0
   -0.7591    0.8738    0.8378 H   0  0  0  0  0  0  0  0  0  0  0  0
    0.0164   -1.5184    0.5962 H   0  0  0  0  0  0  0  0  0  0  0  0
   -1.6048   -1.2196   -0.0751 H   0  0  0  0  0  0  0  0  0  0  0  0
    1.6381   -0.2861   -1.3842 H   0  0  0  0  0  0  0  0  0  0  0  0
    1.8602   -1.9801   -0.8847 H   0  0  0  0  0  0  0  0  0  0  0  0
    2.8864   -1.4404   -3.1285 H   0  0  0  0  0  0  0  0  0  0  0  0
    1.6750   -2.7431   -3.1905 H   0  0  0  0  0  0  0  0  0  0  0  0
    1.2494   -1.1050   -3.7416 H   0  0  0  0  0  0  0  0  0  0  0  0
   -0.0166   -3.2759   -2.5930 H   0  0  0  0  0  0  0  0  0  0  0  0
   -0.0214   -3.4692   -0.8236 H   0  0  0  0  0  0  0  0  0  0  0  0
   -2.3703   -2.6789   -0.7436 H   0  0  0  0  0  0  0  0  0  0  0  0
   -2.3655   -2.4856   -2.5130 H   0  0  0  0  0  0  0  0  0  0  0  0
   -1.9003   -4.9069   -2.7763 H   0  0  0  0  0  0  0  0  0  0  0  0
   -1.9051   -5.1003   -1.0069 H   0  0  0  0  0  0  0  0  0  0  0  0
   -2.7140   -4.1838   -4.2324 H   0  0  0  0  0  0  0  0  0  0  0  0
   -3.9372   -4.0779   -6.3653 H   0  0  0  0  0  0  0  0  0  0  0  0
   -6.3698   -4.4481   -6.4113 H   0  0  0  0  0  0  0  0  0  0  0  0
   -7.5863   -4.9269   -4.3263 H   0  0  0  0  0  0  0  0  0  0  0  0
   -6.3712   -5.0459   -2.1894 H   0  0  0  0  0  0  0  0  0  0  0  0
   -3.8262   -4.8742    0.2421 H   0  0  0  0  0  0  0  0  0  0  0  0
   -5.2794   -3.0150    0.1803 H   0  0  0  0  0  0  0  0  0  0  0  0
   -5.9419   -3.4682   -1.4191 H   0  0  0  0  0  0  0  0  0  0  0  0
   -8.0169   -3.0204    0.9994 H   0  0  0  0  0  0  0  0  0  0  0  0
   -9.6546   -4.5760    1.9736 H   0  0  0  0  0  0  0  0  0  0  0  0
   -9.3215   -7.0074    1.7581 H   0  0  0  0  0  0  0  0  0  0  0  0
   -7.3518   -7.8771    0.5686 H   0  0  0  0  0  0  0  0  0  0  0  0
   -5.5292   -6.4811   -1.6862 H   0  0  0  0  0  0  0  0  0  0  0  0
   -4.7322   -7.0103   -0.1739 H   0  0  0  0  0  0  0  0  0  0  0  0
   -0.5338   -0.9441   -2.2282 H   0  0  0  0  0  0  0  0  0  0  0  0
  1  2  1  0  0  0  0
  1 25  1  0  0  0  0
  1 26  1  0  0  0  0
  1 27  1  0  0  0  0
  2  3  1  0  0  0  0
  2 28  1  0  0  0  0
  2 29  1  0  0  0  0
  3  4  1  0  0  0  0
  3  6  1  0  0  0  0
  3 55  1  0  0  0  0
  4  5  1  0  0  0  0
  4 30  1  0  0  0  0
  4 31  1  0  0  0  0
  5 32  1  0  0  0  0
  5 33  1  0  0  0  0
  5 34  1  0  0  0  0
  6  7  1  0  0  0  0
  6 35  1  0  0  0  0
  6 36  1  0  0  0  0
  7  8  1  0  0  0  0
  7 37  1  0  0  0  0
  7 38  1  0  0  0  0
  8  9  1  0  0  0  0
  8 39  1  0  0  0  0
  8 40  1  0  0  0  0
  9 10  1  0  0  0  0
  9 16  1  0  0  0  0
 10 15  2  0  0  0  0
 10 11  1  0  0  0  0
 11 12  2  0  0  0  0
 11 41  1  0  0  0  0
 12 13  1  0  0  0  0
 12 42  1  0  0  0  0
 13 14  2  0  0  0  0
 13 43  1  0  0  0  0
 14 15  1  0  0  0  0
 14 44  1  0  0  0  0
 15 45  1  0  0  0  0
 16 24  1  0  0  0  0
 16 17  1  0  0  0  0
 16 46  1  0  0  0  0
 17 18  1  0  0  0  0
 17 47  1  0  0  0  0
 17 48  1  0  0  0  0
 18 23  2  0  0  0  0
 18 19  1  0  0  0  0
 19 20  2  0  0  0  0
 19 49  1  0  0  0  0
 20 21  1  0  0  0  0
 20 50  1  0  0  0  0
 21 22  2  0  0  0  0
 21 51  1  0  0  0  0
 22 23  1  0  0  0  0
 22 52  1  0  0  0  0
 23 24  1  0  0  0  0
 24 53  1  0  0  0  0
 24 54  1  0  0  0  0
M  CHG  1   3   1
M  END
$$$$
