ZINC18115268
 OpenBabel08292219463D

 33 33  0  0  0  0  0  0  0  0999 V2000
   -0.2305    1.5570   -0.1028 C   0  0  0  0  0  0  0  0  0  0  0  0
   -0.2654    0.0506   -0.1299 C   0  0  0  0  0  0  0  0  0  0  0  0
   -0.2570   -0.7330   -1.2251 C   0  0  0  0  0  0  0  0  0  0  0  0
   -0.2971   -2.0113   -0.8210 N   0  0  0  0  0  0  0  0  0  0  0  0
   -0.3301   -2.0496    0.4830 C   0  0  0  0  0  0  0  0  0  0  0  0
   -0.3058   -0.7843    0.9540 N   0  0  0  0  0  0  0  0  0  0  0  0
   -0.3170   -0.5169    1.8864 H   0  0  0  0  0  0  0  0  0  0  0  0
   -0.2106   -0.2570   -2.6543 C   0  0  0  0  0  0  0  0  0  0  0  0
    1.5173   -0.1064   -3.1856 S   0  0  0  0  0  0  0  0  0  0  0  0
    1.4000    0.4680   -4.9023 C   0  0  0  0  0  0  0  0  0  0  0  0
    2.8064    0.6390   -5.4800 C   0  0  0  0  0  0  0  0  0  0  0  0
    2.7117    1.1029   -6.8664 N   0  0  0  0  0  0  0  0  0  0  0  0
    3.8480    1.3270   -7.5908 C   0  0  0  0  0  0  0  0  0  0  0  0
    3.7625    1.7454   -8.8414 N   0  0  0  0  0  0  0  0  0  0  0  0
    4.8834    2.0997   -9.5153 C   0  0  0  0  0  0  0  0  0  0  0  0
    5.8231    2.3968  -10.0803 N   0  0  0  0  0  0  0  0  0  0  0  0
    5.0725    1.1185   -7.0225 N   0  0  0  0  0  0  0  0  0  0  0  0
    6.2909    1.4480   -7.7662 C   0  0  0  0  0  0  0  0  0  0  0  0
    0.8051    1.8960   -0.0762 H   0  0  0  0  0  0  0  0  0  0  0  0
   -0.7179    1.9478   -0.9960 H   0  0  0  0  0  0  0  0  0  0  0  0
   -0.7535    1.9166    0.7833 H   0  0  0  0  0  0  0  0  0  0  0  0
   -0.3667   -2.9451    1.0857 H   0  0  0  0  0  0  0  0  0  0  0  0
   -0.7260   -0.9743   -3.2930 H   0  0  0  0  0  0  0  0  0  0  0  0
   -0.6999    0.7140   -2.7299 H   0  0  0  0  0  0  0  0  0  0  0  0
    0.8508   -0.2646   -5.4938 H   0  0  0  0  0  0  0  0  0  0  0  0
    0.8769    1.4238   -4.9307 H   0  0  0  0  0  0  0  0  0  0  0  0
    3.3556    1.3715   -4.8885 H   0  0  0  0  0  0  0  0  0  0  0  0
    3.3296   -0.3168   -5.4517 H   0  0  0  0  0  0  0  0  0  0  0  0
    1.8421    1.2509   -7.2700 H   0  0  0  0  0  0  0  0  0  0  0  0
    5.1354    0.7523   -6.1265 H   0  0  0  0  0  0  0  0  0  0  0  0
    6.3245    0.8638   -8.6858 H   0  0  0  0  0  0  0  0  0  0  0  0
    6.2914    2.5103   -8.0104 H   0  0  0  0  0  0  0  0  0  0  0  0
    7.1634    1.2152   -7.1557 H   0  0  0  0  0  0  0  0  0  0  0  0
  1  2  1  0  0  0  0
  1 19  1  0  0  0  0
  1 20  1  0  0  0  0
  1 21  1  0  0  0  0
  2  6  1  0  0  0  0
  2  3  2  0  0  0  0
  3  4  1  0  0  0  0
  3  8  1  0  0  0  0
  4  5  2  0  0  0  0
  5  6  1  0  0  0  0
  5 22  1  0  0  0  0
  6  7  1  0  0  0  0
  8  9  1  0  0  0  0
  8 23  1  0  0  0  0
  8 24  1  0  0  0  0
  9 10  1  0  0  0  0
 10 11  1  0  0  0  0
 10 25  1  0  0  0  0
 10 26  1  0  0  0  0
 11 12  1  0  0  0  0
 11 27  1  0  0  0  0
 11 28  1  0  0  0  0
 12 13  1  0  0  0  0
 12 29  1  0  0  0  0
 13 14  2  0  0  0  0
 13 17  1  0  0  0  0
 14 15  1  0  0  0  0
 15 16  3  0  0  0  0
 17 18  1  0  0  0  0
 17 30  1  0  0  0  0
 18 31  1  0  0  0  0
 18 32  1  0  0  0  0
 18 33  1  0  0  0  0
M  END
$$$$
