ZINC01540228
 OpenBabel08292219463D

 51 54  0  0  0  0  0  0  0  0999 V2000
    0.4170    1.4732    0.0360 C   0  0  0  0  0  0  0  0  0  0  0  0
    0.1935   -0.0170    0.0132 C   0  0  0  0  0  0  0  0  0  0  0  0
    0.1739   -0.8345   -1.0823 C   0  0  0  0  0  0  0  0  0  0  0  0
   -0.0613   -2.1006   -0.6256 N   0  0  0  0  0  0  0  0  0  0  0  0
   -0.1813   -2.0898    0.6532 N   0  0  0  0  0  0  0  0  0  0  0  0
   -0.0338   -0.8645    1.1195 C   0  0  0  0  0  0  0  0  0  0  0  0
   -0.0985   -0.4542    2.5368 C   0  0  0  0  0  0  0  0  0  0  0  0
    0.0512    0.7138    2.8390 O   0  0  0  0  0  0  0  0  0  0  0  0
   -0.3236   -1.3747    3.4952 N   0  0  0  0  0  0  0  0  0  0  0  0
   -0.3835   -0.9953    4.8060 N   0  0  0  0  0  0  0  0  0  0  0  0
    0.7092   -1.5991    5.5791 C   0  0  0  0  0  0  0  0  0  0  0  0
    0.6976   -1.0401    7.0037 C   0  0  0  0  0  0  0  0  0  0  0  0
   -0.6503   -1.3540    7.6589 C   0  0  0  0  0  0  0  0  0  0  0  0
   -1.7740   -0.7554    6.8084 C   0  0  0  0  0  0  0  0  0  0  0  0
   -1.6907   -1.3226    5.3895 C   0  0  0  0  0  0  0  0  0  0  0  0
   -0.1580   -3.2413   -1.4326 C   0  0  0  0  0  0  0  0  0  0  0  0
   -0.9653   -3.2277   -2.5625 C   0  0  0  0  0  0  0  0  0  0  0  0
   -1.0587   -4.3534   -3.3568 C   0  0  0  0  0  0  0  0  0  0  0  0
   -0.3490   -5.4954   -3.0279 C   0  0  0  0  0  0  0  0  0  0  0  0
    0.4560   -5.5128   -1.9027 C   0  0  0  0  0  0  0  0  0  0  0  0
    0.5581   -4.3870   -1.1074 C   0  0  0  0  0  0  0  0  0  0  0  0
    1.5741   -4.4064    0.3001 Cl  0  0  0  0  0  0  0  0  0  0  0  0
   -0.4696   -6.9086   -4.0289 Cl  0  0  0  0  0  0  0  0  0  0  0  0
    0.3696   -0.4268   -2.4910 C   0  0  0  0  0  0  0  0  0  0  0  0
   -0.4173    0.5843   -3.0431 C   0  0  0  0  0  0  0  0  0  0  0  0
   -0.2304    0.9603   -4.3572 C   0  0  0  0  0  0  0  0  0  0  0  0
    0.7359    0.3363   -5.1279 C   0  0  0  0  0  0  0  0  0  0  0  0
    1.5198   -0.6678   -4.5852 C   0  0  0  0  0  0  0  0  0  0  0  0
    1.3457   -1.0481   -3.2706 C   0  0  0  0  0  0  0  0  0  0  0  0
    0.9651    0.8142   -6.7810 Cl  0  0  0  0  0  0  0  0  0  0  0  0
    1.4830    1.6792    0.1325 H   0  0  0  0  0  0  0  0  0  0  0  0
    0.0448    1.9106   -0.8905 H   0  0  0  0  0  0  0  0  0  0  0  0
   -0.1151    1.9075    0.8823 H   0  0  0  0  0  0  0  0  0  0  0  0
   -0.4431   -2.3066    3.2541 H   0  0  0  0  0  0  0  0  0  0  0  0
    0.5763   -2.6805    5.6122 H   0  0  0  0  0  0  0  0  0  0  0  0
    1.6623   -1.3649    5.1049 H   0  0  0  0  0  0  0  0  0  0  0  0
    1.4991   -1.5002    7.5817 H   0  0  0  0  0  0  0  0  0  0  0  0
    0.8443    0.0395    6.9722 H   0  0  0  0  0  0  0  0  0  0  0  0
   -0.7801   -2.4342    7.7259 H   0  0  0  0  0  0  0  0  0  0  0  0
   -0.6793   -0.9200    8.6584 H   0  0  0  0  0  0  0  0  0  0  0  0
   -2.7384   -1.0119    7.2468 H   0  0  0  0  0  0  0  0  0  0  0  0
   -1.6662    0.3287    6.7738 H   0  0  0  0  0  0  0  0  0  0  0  0
   -2.4808   -0.8875    4.7774 H   0  0  0  0  0  0  0  0  0  0  0  0
   -1.8124   -2.4053    5.4234 H   0  0  0  0  0  0  0  0  0  0  0  0
   -1.5200   -2.3374   -2.8196 H   0  0  0  0  0  0  0  0  0  0  0  0
   -1.6865   -4.3429   -4.2355 H   0  0  0  0  0  0  0  0  0  0  0  0
    1.0081   -6.4054   -1.6480 H   0  0  0  0  0  0  0  0  0  0  0  0
   -1.1716    1.0715   -2.4430 H   0  0  0  0  0  0  0  0  0  0  0  0
   -0.8392    1.7427   -4.7858 H   0  0  0  0  0  0  0  0  0  0  0  0
    2.2721   -1.1511   -5.1910 H   0  0  0  0  0  0  0  0  0  0  0  0
    1.9607   -1.8283   -2.8471 H   0  0  0  0  0  0  0  0  0  0  0  0
  1  2  1  0  0  0  0
  1 31  1  0  0  0  0
  1 32  1  0  0  0  0
  1 33  1  0  0  0  0
  2  6  1  0  0  0  0
  2  3  2  0  0  0  0
  3  4  1  0  0  0  0
  3 24  1  0  0  0  0
  4  5  1  0  0  0  0
  4 16  1  0  0  0  0
  5  6  2  0  0  0  0
  6  7  1  0  0  0  0
  7  8  2  0  0  0  0
  7  9  1  0  0  0  0
  9 10  1  0  0  0  0
  9 34  1  0  0  0  0
 10 15  1  0  0  0  0
 10 11  1  0  0  0  0
 11 12  1  0  0  0  0
 11 35  1  0  0  0  0
 11 36  1  0  0  0  0
 12 13  1  0  0  0  0
 12 37  1  0  0  0  0
 12 38  1  0  0  0  0
 13 14  1  0  0  0  0
 13 39  1  0  0  0  0
 13 40  1  0  0  0  0
 14 15  1  0  0  0  0
 14 41  1  0  0  0  0
 14 42  1  0  0  0  0
 15 43  1  0  0  0  0
 15 44  1  0  0  0  0
 16 21  2  0  0  0  0
 16 17  1  0  0  0  0
 17 18  2  0  0  0  0
 17 45  1  0  0  0  0
 18 19  1  0  0  0  0
 18 46  1  0  0  0  0
 19 20  2  0  0  0  0
 19 23  1  0  0  0  0
 20 21  1  0  0  0  0
 20 47  1  0  0  0  0
 21 22  1  0  0  0  0
 24 29  2  0  0  0  0
 24 25  1  0  0  0  0
 25 26  2  0  0  0  0
 25 48  1  0  0  0  0
 26 27  1  0  0  0  0
 26 49  1  0  0  0  0
 27 28  2  0  0  0  0
 27 30  1  0  0  0  0
 28 29  1  0  0  0  0
 28 50  1  0  0  0  0
 29 51  1  0  0  0  0
M  END
$$$$
