ZINC03955219
 OpenBabel08292219463D

 75 78  0  0  1  0  0  0  0  0999 V2000
    0.5656    0.5437   -1.2071 C   0  0  0  0  0  0  0  0  0  0  0  0
    0.0390   -0.8565   -0.8860 C   0  0  0  0  0  0  0  0  0  0  0  0
    0.9518   -1.5201    0.1471 C   0  0  0  0  0  0  0  0  0  0  0  0
   -1.3789   -0.7510   -0.3208 C   0  0  0  0  0  0  0  0  0  0  0  0
   -2.2807   -0.2409   -1.3566 N   0  0  0  0  0  0  0  0  0  0  0  0
   -2.5357   -1.0344   -2.5614 C   0  0  0  0  0  0  0  0  0  0  0  0
   -3.6581   -2.0364   -2.2841 C   0  0  2  0  0  0  0  0  0  0  0  0
   -3.4002   -2.6391   -1.4133 H   0  0  0  0  0  0  0  0  0  0  0  0
   -3.8399   -2.9479   -3.4995 C   0  0  2  0  0  0  0  0  0  0  0  0
   -2.8882   -3.4186   -3.7462 H   0  0  0  0  0  0  0  0  0  0  0  0
   -4.3228   -2.1186   -4.6912 C   0  0  0  0  0  0  0  0  0  0  0  0
   -4.3842   -2.9912   -5.9183 C   0  0  0  0  0  0  0  0  0  0  0  0
   -3.2776   -3.1097   -6.7382 C   0  0  0  0  0  0  0  0  0  0  0  0
   -3.3340   -3.9101   -7.8639 C   0  0  0  0  0  0  0  0  0  0  0  0
   -4.4968   -4.5922   -8.1695 C   0  0  0  0  0  0  0  0  0  0  0  0
   -5.6032   -4.4743   -7.3491 C   0  0  0  0  0  0  0  0  0  0  0  0
   -5.5454   -3.6774   -6.2211 C   0  0  0  0  0  0  0  0  0  0  0  0
   -4.8306   -3.9819   -3.1906 N   0  0  0  0  0  0  0  0  0  0  0  0
   -4.8076   -5.1562   -3.8518 C   0  0  0  0  0  0  0  0  0  0  0  0
   -3.9651   -5.3571   -4.7040 O   0  0  0  0  0  0  0  0  0  0  0  0
   -5.7180   -6.1065   -3.5679 O   0  0  0  0  0  0  0  0  0  0  0  0
   -5.6345   -7.3265   -4.3073 C   0  0  1  0  0  0  0  0  0  0  0  0
   -5.2155   -7.1423   -5.2965 H   0  0  0  0  0  0  0  0  0  0  0  0
   -4.7816   -8.3569   -3.5471 C   0  0  0  0  0  0  0  0  0  0  0  0
   -5.6052   -9.4963   -3.2792 O   0  0  0  0  0  0  0  0  0  0  0  0
   -6.9827   -9.0985   -3.3468 C   0  0  2  0  0  0  0  0  0  0  0  0
   -7.6364   -9.9341   -3.5972 H   0  0  0  0  0  0  0  0  0  0  0  0
   -7.0269   -7.9791   -4.4265 C   0  0  1  0  0  0  0  0  0  0  0  0
   -7.2412   -8.3511   -5.4283 H   0  0  0  0  0  0  0  0  0  0  0  0
   -8.0897   -7.0016   -3.8867 C   0  0  0  0  0  0  0  0  0  0  0  0
   -8.2608   -7.3840   -2.4070 C   0  0  0  0  0  0  0  0  0  0  0  0
   -7.3571   -8.4770   -2.1094 O   0  0  0  0  0  0  0  0  0  0  0  0
   -4.8749   -1.3309   -2.0316 O   0  0  0  0  0  0  0  0  0  0  0  0
   -3.0120    1.2325   -1.1654 S   0  0  0  0  0  0  0  0  0  0  0  0
   -4.1171    1.2563   -2.0583 O   0  0  0  0  0  0  0  0  0  0  0  0
   -3.1584    1.4348    0.2335 O   0  0  0  0  0  0  0  0  0  0  0  0
   -1.8779    2.4548   -1.7349 C   0  0  0  0  0  0  0  0  0  0  0  0
   -1.0565    3.1070   -0.8337 C   0  0  0  0  0  0  0  0  0  0  0  0
   -0.1664    4.0656   -1.2768 C   0  0  0  0  0  0  0  0  0  0  0  0
   -0.0969    4.3743   -2.6294 C   0  0  0  0  0  0  0  0  0  0  0  0
   -0.9235    3.7172   -3.5319 C   0  0  0  0  0  0  0  0  0  0  0  0
   -1.8073    2.7556   -3.0828 C   0  0  0  0  0  0  0  0  0  0  0  0
    0.8018    5.3435   -3.0808 N   0  0  0  0  0  0  0  0  0  0  0  0
    1.6118    0.4788   -1.5059 H   0  0  0  0  0  0  0  0  0  0  0  0
   -0.0186    0.9739   -2.0206 H   0  0  0  0  0  0  0  0  0  0  0  0
    0.4786    1.1760   -0.3235 H   0  0  0  0  0  0  0  0  0  0  0  0
    0.0237   -1.4564   -1.7960 H   0  0  0  0  0  0  0  0  0  0  0  0
    0.9671   -0.9202    1.0570 H   0  0  0  0  0  0  0  0  0  0  0  0
    0.5766   -2.5177    0.3758 H   0  0  0  0  0  0  0  0  0  0  0  0
    1.9619   -1.5953   -0.2556 H   0  0  0  0  0  0  0  0  0  0  0  0
   -1.7158   -1.7362    0.0013 H   0  0  0  0  0  0  0  0  0  0  0  0
   -1.3810   -0.0700    0.5303 H   0  0  0  0  0  0  0  0  0  0  0  0
   -2.8318   -0.3733   -3.3759 H   0  0  0  0  0  0  0  0  0  0  0  0
   -1.6296   -1.5720   -2.8409 H   0  0  0  0  0  0  0  0  0  0  0  0
   -5.3149   -1.7204   -4.4785 H   0  0  0  0  0  0  0  0  0  0  0  0
   -3.6303   -1.2951   -4.8652 H   0  0  0  0  0  0  0  0  0  0  0  0
   -2.3691   -2.5768   -6.4995 H   0  0  0  0  0  0  0  0  0  0  0  0
   -2.4696   -4.0021   -8.5048 H   0  0  0  0  0  0  0  0  0  0  0  0
   -4.5411   -5.2169   -9.0493 H   0  0  0  0  0  0  0  0  0  0  0  0
   -6.5118   -5.0070   -7.5880 H   0  0  0  0  0  0  0  0  0  0  0  0
   -6.4086   -3.5882   -5.5781 H   0  0  0  0  0  0  0  0  0  0  0  0
   -5.5031   -3.8215   -2.5102 H   0  0  0  0  0  0  0  0  0  0  0  0
   -3.9293   -8.6532   -4.1585 H   0  0  0  0  0  0  0  0  0  0  0  0
   -4.4315   -7.9259   -2.6092 H   0  0  0  0  0  0  0  0  0  0  0  0
   -7.7390   -5.9734   -3.9747 H   0  0  0  0  0  0  0  0  0  0  0  0
   -9.0301   -7.1298   -4.4229 H   0  0  0  0  0  0  0  0  0  0  0  0
   -8.0290   -6.5265   -1.7753 H   0  0  0  0  0  0  0  0  0  0  0  0
   -9.2853   -7.7093   -2.2262 H   0  0  0  0  0  0  0  0  0  0  0  0
   -5.1656   -0.7728   -2.7659 H   0  0  0  0  0  0  0  0  0  0  0  0
   -1.1113    2.8668    0.2178 H   0  0  0  0  0  0  0  0  0  0  0  0
    0.4746    4.5749   -0.5724 H   0  0  0  0  0  0  0  0  0  0  0  0
   -0.8722    3.9551   -4.5841 H   0  0  0  0  0  0  0  0  0  0  0  0
   -2.4471    2.2413   -3.7845 H   0  0  0  0  0  0  0  0  0  0  0  0
    1.3783    5.8019   -2.4496 H   0  0  0  0  0  0  0  0  0  0  0  0
    0.8495    5.5582   -4.0255 H   0  0  0  0  0  0  0  0  0  0  0  0
  1  2  1  0  0  0  0
  1 44  1  0  0  0  0
  1 45  1  0  0  0  0
  1 46  1  0  0  0  0
  2  3  1  0  0  0  0
  2  4  1  0  0  0  0
  2 47  1  0  0  0  0
  3 48  1  0  0  0  0
  3 49  1  0  0  0  0
  3 50  1  0  0  0  0
  4  5  1  0  0  0  0
  4 51  1  0  0  0  0
  4 52  1  0  0  0  0
  5  6  1  0  0  0  0
  5 34  1  0  0  0  0
  6  7  1  0  0  0  0
  6 53  1  0  0  0  0
  6 54  1  0  0  0  0
  7  8  1  1  0  0  0
  7  9  1  0  0  0  0
  7 33  1  0  0  0  0
  9 10  1  6  0  0  0
  9 11  1  0  0  0  0
  9 18  1  0  0  0  0
 11 12  1  0  0  0  0
 11 55  1  0  0  0  0
 11 56  1  0  0  0  0
 12 17  2  0  0  0  0
 12 13  1  0  0  0  0
 13 14  2  0  0  0  0
 13 57  1  0  0  0  0
 14 15  1  0  0  0  0
 14 58  1  0  0  0  0
 15 16  2  0  0  0  0
 15 59  1  0  0  0  0
 16 17  1  0  0  0  0
 16 60  1  0  0  0  0
 17 61  1  0  0  0  0
 18 19  1  0  0  0  0
 18 62  1  0  0  0  0
 19 20  2  0  0  0  0
 19 21  1  0  0  0  0
 21 22  1  0  0  0  0
 22 23  1  6  0  0  0
 22 28  1  0  0  0  0
 22 24  1  0  0  0  0
 24 25  1  0  0  0  0
 24 63  1  0  0  0  0
 24 64  1  0  0  0  0
 25 26  1  0  0  0  0
 26 27  1  6  0  0  0
 26 32  1  0  0  0  0
 26 28  1  0  0  0  0
 28 29  1  6  0  0  0
 28 30  1  0  0  0  0
 30 31  1  0  0  0  0
 30 65  1  0  0  0  0
 30 66  1  0  0  0  0
 31 32  1  0  0  0  0
 31 67  1  0  0  0  0
 31 68  1  0  0  0  0
 33 69  1  0  0  0  0
 34 35  2  0  0  0  0
 34 36  2  0  0  0  0
 34 37  1  0  0  0  0
 37 42  2  0  0  0  0
 37 38  1  0  0  0  0
 38 39  2  0  0  0  0
 38 70  1  0  0  0  0
 39 40  1  0  0  0  0
 39 71  1  0  0  0  0
 40 41  2  0  0  0  0
 40 43  1  0  0  0  0
 41 42  1  0  0  0  0
 41 72  1  0  0  0  0
 42 73  1  0  0  0  0
 43 74  1  0  0  0  0
 43 75  1  0  0  0  0
M  END
$$$$
