ZINC00056643
 OpenBabel08292219463D

 45 47  0  0  1  0  0  0  0  0999 V2000
   -0.0178    1.4648    0.0101 C   0  0  0  0  0  0  0  0  0  0  0  0
    0.0021   -0.0041    0.0020 N   0  3  1  0  0  0  0  0  0  0  0  0
    0.6815   -0.4760   -1.2105 C   0  0  0  0  0  0  0  0  0  0  0  0
    0.6339   -2.0045   -1.2642 C   0  0  0  0  0  0  0  0  0  0  0  0
    1.3359   -2.5754   -0.0287 C   0  0  1  0  0  0  0  0  0  0  0  0
    0.6658   -2.0178    1.2303 C   0  0  0  0  0  0  0  0  0  0  0  0
    0.7122   -0.4888    1.1916 C   0  0  0  0  0  0  0  0  0  0  0  0
    1.2304   -4.0005   -0.0350 O   0  0  0  0  0  0  0  0  0  0  0  0
    2.3254   -4.6672    0.5963 C   0  0  0  0  0  0  0  0  0  0  0  0
    2.0219   -4.8560    2.0603 C   0  0  0  0  0  0  0  0  0  0  0  0
    0.7487   -5.2152    2.4616 C   0  0  0  0  0  0  0  0  0  0  0  0
    0.4704   -5.3884    3.8045 C   0  0  0  0  0  0  0  0  0  0  0  0
    1.4653   -5.2029    4.7461 C   0  0  0  0  0  0  0  0  0  0  0  0
    2.7387   -4.8446    4.3448 C   0  0  0  0  0  0  0  0  0  0  0  0
    3.0181   -4.6756    3.0016 C   0  0  0  0  0  0  0  0  0  0  0  0
    2.5352   -6.0120   -0.0507 C   0  0  0  0  0  0  0  0  0  0  0  0
    1.4502   -6.7347   -0.5102 C   0  0  0  0  0  0  0  0  0  0  0  0
    1.6426   -7.9683   -1.1037 C   0  0  0  0  0  0  0  0  0  0  0  0
    2.9202   -8.4788   -1.2381 C   0  0  0  0  0  0  0  0  0  0  0  0
    4.0053   -7.7556   -0.7794 C   0  0  0  0  0  0  0  0  0  0  0  0
    3.8132   -6.5202   -0.1898 C   0  0  0  0  0  0  0  0  0  0  0  0
    1.0047    1.8421    0.0024 H   0  0  0  0  0  0  0  0  0  0  0  0
   -0.5450    1.8259   -0.8730 H   0  0  0  0  0  0  0  0  0  0  0  0
   -0.5280    1.8163    0.9069 H   0  0  0  0  0  0  0  0  0  0  0  0
    0.1827   -0.0663   -2.0888 H   0  0  0  0  0  0  0  0  0  0  0  0
    1.7201   -0.1456   -1.1964 H   0  0  0  0  0  0  0  0  0  0  0  0
   -0.4044   -2.3361   -1.2786 H   0  0  0  0  0  0  0  0  0  0  0  0
    1.1404   -2.3531   -2.1643 H   0  0  0  0  0  0  0  0  0  0  0  0
    2.3869   -2.2866   -0.0407 H   0  0  0  0  0  0  0  0  0  0  0  0
   -0.3718   -2.3496    1.2677 H   0  0  0  0  0  0  0  0  0  0  0  0
    1.1951   -2.3758    2.1133 H   0  0  0  0  0  0  0  0  0  0  0  0
    1.7502   -0.1581    1.1545 H   0  0  0  0  0  0  0  0  0  0  0  0
    0.2361   -0.0886    2.0867 H   0  0  0  0  0  0  0  0  0  0  0  0
    3.2283   -4.0665    0.4870 H   0  0  0  0  0  0  0  0  0  0  0  0
   -0.0286   -5.3601    1.7259 H   0  0  0  0  0  0  0  0  0  0  0  0
   -0.5245   -5.6682    4.1180 H   0  0  0  0  0  0  0  0  0  0  0  0
    1.2476   -5.3375    5.7953 H   0  0  0  0  0  0  0  0  0  0  0  0
    3.5159   -4.6994    5.0805 H   0  0  0  0  0  0  0  0  0  0  0  0
    4.0139   -4.3994    2.6877 H   0  0  0  0  0  0  0  0  0  0  0  0
    0.4520   -6.3359   -0.4053 H   0  0  0  0  0  0  0  0  0  0  0  0
    0.7949   -8.5333   -1.4621 H   0  0  0  0  0  0  0  0  0  0  0  0
    3.0705   -9.4429   -1.7012 H   0  0  0  0  0  0  0  0  0  0  0  0
    5.0034   -8.1547   -0.8841 H   0  0  0  0  0  0  0  0  0  0  0  0
    4.6613   -5.9535    0.1653 H   0  0  0  0  0  0  0  0  0  0  0  0
   -0.9449   -0.3523    0.0117 H   0  0  0  0  0  0  0  0  0  0  0  0
  1  2  1  0  0  0  0
  1 22  1  0  0  0  0
  1 23  1  0  0  0  0
  1 24  1  0  0  0  0
  2  7  1  0  0  0  0
  2  3  1  0  0  0  0
  2 45  1  1  0  0  0
  3  4  1  0  0  0  0
  3 25  1  0  0  0  0
  3 26  1  0  0  0  0
  4  5  1  0  0  0  0
  4 27  1  0  0  0  0
  4 28  1  0  0  0  0
  5  6  1  0  0  0  0
  5  8  1  0  0  0  0
  5 29  1  6  0  0  0
  6  7  1  0  0  0  0
  6 30  1  0  0  0  0
  6 31  1  0  0  0  0
  7 32  1  0  0  0  0
  7 33  1  0  0  0  0
  8  9  1  0  0  0  0
  9 10  1  0  0  0  0
  9 16  1  0  0  0  0
  9 34  1  0  0  0  0
 10 15  2  0  0  0  0
 10 11  1  0  0  0  0
 11 12  2  0  0  0  0
 11 35  1  0  0  0  0
 12 13  1  0  0  0  0
 12 36  1  0  0  0  0
 13 14  2  0  0  0  0
 13 37  1  0  0  0  0
 14 15  1  0  0  0  0
 14 38  1  0  0  0  0
 15 39  1  0  0  0  0
 16 21  2  0  0  0  0
 16 17  1  0  0  0  0
 17 18  2  0  0  0  0
 17 40  1  0  0  0  0
 18 19  1  0  0  0  0
 18 41  1  0  0  0  0
 19 20  2  0  0  0  0
 19 42  1  0  0  0  0
 20 21  1  0  0  0  0
 20 43  1  0  0  0  0
 21 44  1  0  0  0  0
M  CHG  1   2   1
M  END
$$$$
