ZINC09575047
 OpenBabel08292219463D

 87 89  0  0  1  0  0  0  0  0999 V2000
    1.2598    2.5322    0.6837 C   0  0  0  0  0  0  0  0  0  0  0  0
    2.7712    2.6831    0.8817 C   0  0  0  0  0  0  0  0  0  0  0  0
    3.4938    2.1388   -0.3544 C   0  0  2  0  0  0  0  0  0  0  0  0
    3.2212    2.7327   -1.2267 H   0  0  0  0  0  0  0  0  0  0  0  0
    3.0797    0.6819   -0.5777 C   0  0  2  0  0  0  0  0  0  0  0  0
    3.5580    0.3024   -1.4807 H   0  0  0  0  0  0  0  0  0  0  0  0
    1.6601    0.6086   -0.7235 O   0  0  0  0  0  0  0  0  0  0  0  0
    0.9320    1.0601    0.4203 C   0  0  2  0  0  0  0  0  0  0  0  0
    1.2130    0.4641    1.2886 H   0  0  0  0  0  0  0  0  0  0  0  0
   -0.5685    0.9098    0.1619 C   0  0  0  0  0  0  0  0  0  0  0  0
   -0.9021   -0.5145    0.0279 N   0  3  0  0  0  0  0  0  0  0  0  0
    3.4852   -0.1060    0.5434 O   0  0  0  0  0  0  0  0  0  0  0  0
    3.3511   -1.5145    0.3429 C   0  0  2  0  0  0  0  0  0  0  0  0
    2.5249   -1.7070   -0.3415 H   0  0  0  0  0  0  0  0  0  0  0  0
    3.0718   -2.1962    1.6839 C   0  0  2  0  0  0  0  0  0  0  0  0
    3.8980   -2.0036    2.3684 H   0  0  0  0  0  0  0  0  0  0  0  0
    2.9282   -3.7042    1.4693 C   0  0  0  0  0  0  0  0  0  0  0  0
    4.2235   -4.2603    0.8744 C   0  0  2  0  0  0  0  0  0  0  0  0
    5.0497   -4.0678    1.5589 H   0  0  0  0  0  0  0  0  0  0  0  0
    4.5028   -3.5786   -0.4666 C   0  0  1  0  0  0  0  0  0  0  0  0
    3.6766   -3.7711   -1.1510 H   0  0  0  0  0  0  0  0  0  0  0  0
    4.6464   -2.0706   -0.2519 C   0  0  1  0  0  0  0  0  0  0  0  0
    5.4725   -1.8780    0.4326 H   0  0  0  0  0  0  0  0  0  0  0  0
    4.9072   -1.4339   -1.5044 O   0  0  0  0  0  0  0  0  0  0  0  0
    5.7126   -4.0980   -1.0221 O   0  0  0  0  0  0  0  0  0  0  0  0
    5.5227   -5.2329   -1.8695 C   0  0  2  0  0  0  0  0  0  0  0  0
    4.8858   -5.9600   -1.3660 H   0  0  0  0  0  0  0  0  0  0  0  0
    6.8793   -5.8709   -2.1799 C   0  0  1  0  0  0  0  0  0  0  0  0
    6.7319   -6.7600   -2.7929 H   0  0  0  0  0  0  0  0  0  0  0  0
    7.7468   -4.8630   -2.9402 C   0  0  2  0  0  0  0  0  0  0  0  0
    7.9356   -3.9949   -2.3086 H   0  0  0  0  0  0  0  0  0  0  0  0
    7.0075   -4.4234   -4.2077 C   0  0  1  0  0  0  0  0  0  0  0  0
    6.8627   -5.2834   -4.8617 H   0  0  0  0  0  0  0  0  0  0  0  0
    5.6460   -3.8413   -3.8190 C   0  0  2  0  0  0  0  0  0  0  0  0
    5.7924   -2.9575   -3.1981 H   0  0  0  0  0  0  0  0  0  0  0  0
    4.9022   -4.8190   -3.0884 O   0  0  0  0  0  0  0  0  0  0  0  0
    4.8764   -3.4548   -5.0836 C   0  0  0  0  0  0  0  0  0  0  0  0
    3.6670   -2.7864   -4.7196 O   0  0  0  0  0  0  0  0  0  0  0  0
    7.7762   -3.4297   -4.8886 O   0  0  0  0  0  0  0  0  0  0  0  0
    9.0232   -5.4911   -3.3065 N   0  3  0  0  0  0  0  0  0  0  0  0
    7.5266   -6.2345   -0.9589 O   0  0  0  0  0  0  0  0  0  0  0  0
    4.0860   -5.7043    0.6689 N   0  0  0  0  0  0  0  0  0  0  0  0
    4.6944   -6.5654    1.5084 C   0  0  0  0  0  0  0  0  0  0  0  0
    5.3557   -6.1449    2.4340 O   0  0  0  0  0  0  0  0  0  0  0  0
    4.5530   -8.0508    1.2970 C   0  0  2  0  0  0  0  0  0  0  0  0
    4.8636   -8.3047    0.2835 H   0  0  0  0  0  0  0  0  0  0  0  0
    3.0922   -8.4580    1.4998 C   0  0  0  0  0  0  0  0  0  0  0  0
    2.9249   -9.9413    1.1640 C   0  0  0  0  0  0  0  0  0  0  0  0
    1.5223  -10.3322    1.3587 N   0  3  0  0  0  0  0  0  0  0  0  0
    5.3760   -8.7460    2.2357 O   0  0  0  0  0  0  0  0  0  0  0  0
    1.8282   -1.6622    2.2550 N   0  3  0  0  0  0  0  0  0  0  0  0
    4.9461    2.2111   -0.1456 N   0  3  0  0  0  0  0  0  0  0  0  0
    0.7397    2.8662    1.5814 H   0  0  0  0  0  0  0  0  0  0  0  0
    0.9421    3.1341   -0.1677 H   0  0  0  0  0  0  0  0  0  0  0  0
    3.0182    3.7364    1.0141 H   0  0  0  0  0  0  0  0  0  0  0  0
    3.0815    2.1210    1.7625 H   0  0  0  0  0  0  0  0  0  0  0  0
   -1.1254    1.3365    0.9962 H   0  0  0  0  0  0  0  0  0  0  0  0
   -0.8332    1.4330   -0.7570 H   0  0  0  0  0  0  0  0  0  0  0  0
   -0.6571   -0.9988    0.8785 H   0  0  0  0  0  0  0  0  0  0  0  0
   -1.8917   -0.6136   -0.1425 H   0  0  0  0  0  0  0  0  0  0  0  0
    2.7293   -4.1899    2.4246 H   0  0  0  0  0  0  0  0  0  0  0  0
    2.1021   -3.8967    0.7848 H   0  0  0  0  0  0  0  0  0  0  0  0
    5.7612   -1.6666   -1.8936 H   0  0  0  0  0  0  0  0  0  0  0  0
    5.4893   -2.7907   -5.6931 H   0  0  0  0  0  0  0  0  0  0  0  0
    4.6379   -4.3533   -5.6527 H   0  0  0  0  0  0  0  0  0  0  0  0
    3.1272   -2.5118   -5.4735 H   0  0  0  0  0  0  0  0  0  0  0  0
    7.3669   -3.1051   -5.7023 H   0  0  0  0  0  0  0  0  0  0  0  0
    8.8473   -6.2928   -3.8935 H   0  0  0  0  0  0  0  0  0  0  0  0
    9.5937   -4.8263   -3.8072 H   0  0  0  0  0  0  0  0  0  0  0  0
    7.0295   -6.8683   -0.4239 H   0  0  0  0  0  0  0  0  0  0  0  0
    3.5571   -6.0406   -0.0714 H   0  0  0  0  0  0  0  0  0  0  0  0
    2.8078   -8.2861    2.5379 H   0  0  0  0  0  0  0  0  0  0  0  0
    2.4550   -7.8632    0.8453 H   0  0  0  0  0  0  0  0  0  0  0  0
    3.2092  -10.1131    0.1259 H   0  0  0  0  0  0  0  0  0  0  0  0
    3.5620  -10.5360    1.8185 H   0  0  0  0  0  0  0  0  0  0  0  0
    1.4119  -11.3104    1.1373 H   0  0  0  0  0  0  0  0  0  0  0  0
    1.2591  -10.1731    2.3197 H   0  0  0  0  0  0  0  0  0  0  0  0
    5.1556   -8.5671    3.1601 H   0  0  0  0  0  0  0  0  0  0  0  0
    1.0634   -1.8405    1.6214 H   0  0  0  0  0  0  0  0  0  0  0  0
    1.6440   -2.1118    3.1394 H   0  0  0  0  0  0  0  0  0  0  0  0
    5.1979    1.6594    0.6609 H   0  0  0  0  0  0  0  0  0  0  0  0
    5.4213    1.8524   -0.9602 H   0  0  0  0  0  0  0  0  0  0  0  0
    0.9324   -9.7816    0.7529 H   0  0  0  0  0  0  0  0  0  0  0  0
   -0.3866   -0.9094   -0.7444 H   0  0  0  0  0  0  0  0  0  0  0  0
    5.2167    3.1713    0.0061 H   0  0  0  0  0  0  0  0  0  0  0  0
    1.9229   -0.6677    2.3966 H   0  0  0  0  0  0  0  0  0  0  0  0
    9.5053   -5.7857   -2.4705 H   0  0  0  0  0  0  0  0  0  0  0  0
  1  8  1  0  0  0  0
  1  2  1  0  0  0  0
  1 53  1  0  0  0  0
  1 54  1  0  0  0  0
  2  3  1  0  0  0  0
  2 55  1  0  0  0  0
  2 56  1  0  0  0  0
  3  4  1  6  0  0  0
  3  5  1  0  0  0  0
  3 52  1  0  0  0  0
  5  6  1  6  0  0  0
  5  7  1  0  0  0  0
  5 12  1  0  0  0  0
  7  8  1  0  0  0  0
  8  9  1  1  0  0  0
  8 10  1  0  0  0  0
 10 11  1  0  0  0  0
 10 57  1  0  0  0  0
 10 58  1  0  0  0  0
 11 59  1  0  0  0  0
 11 60  1  0  0  0  0
 11 84  1  0  0  0  0
 12 13  1  0  0  0  0
 13 14  1  6  0  0  0
 13 22  1  0  0  0  0
 13 15  1  0  0  0  0
 15 16  1  1  0  0  0
 15 17  1  0  0  0  0
 15 51  1  0  0  0  0
 17 18  1  0  0  0  0
 17 61  1  0  0  0  0
 17 62  1  0  0  0  0
 18 19  1  1  0  0  0
 18 20  1  0  0  0  0
 18 42  1  0  0  0  0
 20 21  1  6  0  0  0
 20 22  1  0  0  0  0
 20 25  1  0  0  0  0
 22 23  1  1  0  0  0
 22 24  1  0  0  0  0
 24 63  1  0  0  0  0
 25 26  1  0  0  0  0
 26 27  1  1  0  0  0
 26 36  1  0  0  0  0
 26 28  1  0  0  0  0
 28 29  1  6  0  0  0
 28 30  1  0  0  0  0
 28 41  1  0  0  0  0
 30 31  1  1  0  0  0
 30 32  1  0  0  0  0
 30 40  1  0  0  0  0
 32 33  1  6  0  0  0
 32 34  1  0  0  0  0
 32 39  1  0  0  0  0
 34 35  1  1  0  0  0
 34 36  1  0  0  0  0
 34 37  1  0  0  0  0
 37 38  1  0  0  0  0
 37 64  1  0  0  0  0
 37 65  1  0  0  0  0
 38 66  1  0  0  0  0
 39 67  1  0  0  0  0
 40 68  1  0  0  0  0
 40 69  1  0  0  0  0
 40 87  1  0  0  0  0
 41 70  1  0  0  0  0
 42 43  1  0  0  0  0
 42 71  1  0  0  0  0
 43 44  2  0  0  0  0
 43 45  1  0  0  0  0
 45 46  1  6  0  0  0
 45 47  1  0  0  0  0
 45 50  1  0  0  0  0
 47 48  1  0  0  0  0
 47 72  1  0  0  0  0
 47 73  1  0  0  0  0
 48 49  1  0  0  0  0
 48 74  1  0  0  0  0
 48 75  1  0  0  0  0
 49 76  1  0  0  0  0
 49 77  1  0  0  0  0
 49 83  1  0  0  0  0
 50 78  1  0  0  0  0
 51 79  1  0  0  0  0
 51 80  1  0  0  0  0
 51 86  1  0  0  0  0
 52 81  1  0  0  0  0
 52 82  1  0  0  0  0
 52 85  1  0  0  0  0
M  CHG  5  11   1  40   1  49   1  51   1  52   1
M  END
$$$$
