ZINC03800706
 OpenBabel08292219463D

 46 48  0  0  1  0  0  0  0  0999 V2000
   -0.0178    1.4648    0.0101 C   0  0  0  0  0  0  0  0  0  0  0  0
    0.0021   -0.0041    0.0020 N   0  3  0  0  0  0  0  0  0  0  0  0
    0.7126   -0.4907    1.1921 C   0  0  0  0  0  0  0  0  0  0  0  0
   -1.3761   -0.5125    0.0124 C   0  0  0  0  0  0  0  0  0  0  0  0
   -1.3584   -2.0365   -0.1216 C   0  0  0  0  0  0  0  0  0  0  0  0
   -2.7938   -2.5661   -0.1108 C   0  0  0  0  0  0  0  0  0  0  0  0
   -2.7762   -4.0901   -0.2449 C   0  0  2  0  0  0  0  0  0  0  0  0
   -4.1888   -4.6236   -0.3096 C   0  0  0  0  0  0  0  0  0  0  0  0
   -5.1200   -4.6778   -1.3285 C   0  0  0  0  0  0  0  0  0  0  0  0
   -6.3628   -5.2329   -1.1018 C   0  0  0  0  0  0  0  0  0  0  0  0
   -6.6783   -5.7409    0.1602 C   0  0  0  0  0  0  0  0  0  0  0  0
   -5.7322   -5.6836    1.1861 C   0  0  0  0  0  0  0  0  0  0  0  0
   -4.4959   -5.1266    0.9466 C   0  0  0  0  0  0  0  0  0  0  0  0
   -3.2820   -4.9180    1.8221 C   0  0  0  0  0  0  0  0  0  0  0  0
   -2.1820   -4.6839    0.9239 O   0  0  0  0  0  0  0  0  0  0  0  0
   -7.9666   -6.3178    0.4015 C   0  0  0  0  0  0  0  0  0  0  0  0
   -8.9886   -6.7754    0.5930 N   0  0  0  0  0  0  0  0  0  0  0  0
   -2.0103   -4.4934   -1.4785 C   0  0  0  0  0  0  0  0  0  0  0  0
   -1.9792   -3.6548   -2.5771 C   0  0  0  0  0  0  0  0  0  0  0  0
   -1.2768   -4.0233   -3.7088 C   0  0  0  0  0  0  0  0  0  0  0  0
   -0.6042   -5.2331   -3.7421 C   0  0  0  0  0  0  0  0  0  0  0  0
   -0.6360   -6.0722   -2.6412 C   0  0  0  0  0  0  0  0  0  0  0  0
   -1.3347   -5.6992   -1.5087 C   0  0  0  0  0  0  0  0  0  0  0  0
    0.0824   -5.5946   -4.8480 F   0  0  0  0  0  0  0  0  0  0  0  0
    1.0047    1.8421    0.0024 H   0  0  0  0  0  0  0  0  0  0  0  0
   -0.5450    1.8259   -0.8730 H   0  0  0  0  0  0  0  0  0  0  0  0
   -0.5280    1.8163    0.9069 H   0  0  0  0  0  0  0  0  0  0  0  0
    0.2024   -0.1392    2.0889 H   0  0  0  0  0  0  0  0  0  0  0  0
    0.7273   -1.5806    1.1861 H   0  0  0  0  0  0  0  0  0  0  0  0
    1.7352   -0.1134    1.1844 H   0  0  0  0  0  0  0  0  0  0  0  0
   -1.8584   -0.2358    0.9500 H   0  0  0  0  0  0  0  0  0  0  0  0
   -1.9290   -0.0808   -0.8218 H   0  0  0  0  0  0  0  0  0  0  0  0
   -0.8762   -2.3132   -1.0592 H   0  0  0  0  0  0  0  0  0  0  0  0
   -0.8055   -2.4683    0.7126 H   0  0  0  0  0  0  0  0  0  0  0  0
   -3.2761   -2.2894    0.8267 H   0  0  0  0  0  0  0  0  0  0  0  0
   -3.3467   -2.1344   -0.9450 H   0  0  0  0  0  0  0  0  0  0  0  0
   -4.8751   -4.2847   -2.3041 H   0  0  0  0  0  0  0  0  0  0  0  0
   -7.0904   -5.2740   -1.8989 H   0  0  0  0  0  0  0  0  0  0  0  0
   -5.9698   -6.0744    2.1645 H   0  0  0  0  0  0  0  0  0  0  0  0
   -3.4295   -4.0531    2.4687 H   0  0  0  0  0  0  0  0  0  0  0  0
   -3.0941   -5.8085    2.4219 H   0  0  0  0  0  0  0  0  0  0  0  0
   -2.5043   -2.7113   -2.5510 H   0  0  0  0  0  0  0  0  0  0  0  0
   -1.2530   -3.3681   -4.5670 H   0  0  0  0  0  0  0  0  0  0  0  0
   -0.1120   -7.0162   -2.6661 H   0  0  0  0  0  0  0  0  0  0  0  0
   -1.3560   -6.3515   -0.6482 H   0  0  0  0  0  0  0  0  0  0  0  0
    0.4744   -0.3295   -0.8281 H   0  0  0  0  0  0  0  0  0  0  0  0
  1  2  1  0  0  0  0
  1 25  1  0  0  0  0
  1 26  1  0  0  0  0
  1 27  1  0  0  0  0
  2  3  1  0  0  0  0
  2  4  1  0  0  0  0
  2 46  1  0  0  0  0
  3 28  1  0  0  0  0
  3 29  1  0  0  0  0
  3 30  1  0  0  0  0
  4  5  1  0  0  0  0
  4 31  1  0  0  0  0
  4 32  1  0  0  0  0
  5  6  1  0  0  0  0
  5 33  1  0  0  0  0
  5 34  1  0  0  0  0
  6 35  1  0  0  0  0
  6 36  1  0  0  0  0
  7  6  1  1  0  0  0
  7 15  1  0  0  0  0
  7  8  1  0  0  0  0
  7 18  1  0  0  0  0
  8 13  2  0  0  0  0
  8  9  1  0  0  0  0
  9 10  2  0  0  0  0
  9 37  1  0  0  0  0
 10 11  1  0  0  0  0
 10 38  1  0  0  0  0
 11 12  2  0  0  0  0
 11 16  1  0  0  0  0
 12 13  1  0  0  0  0
 12 39  1  0  0  0  0
 13 14  1  0  0  0  0
 14 15  1  0  0  0  0
 14 40  1  0  0  0  0
 14 41  1  0  0  0  0
 16 17  3  0  0  0  0
 18 23  2  0  0  0  0
 18 19  1  0  0  0  0
 19 20  2  0  0  0  0
 19 42  1  0  0  0  0
 20 21  1  0  0  0  0
 20 43  1  0  0  0  0
 21 22  2  0  0  0  0
 21 24  1  0  0  0  0
 22 23  1  0  0  0  0
 22 44  1  0  0  0  0
 23 45  1  0  0  0  0
M  CHG  1   2   1
M  END
$$$$
