ZINC00607939
 OpenBabel08292219463D

 48 50  0  0  1  0  0  0  0  0999 V2000
    0.2062    1.4969    0.1190 C   0  0  0  0  0  0  0  0  0  0  0  0
    0.1116   -0.0058    0.0569 C   0  0  0  0  0  0  0  0  0  0  0  0
   -1.0913   -0.5995    0.1440 C   0  0  0  0  0  0  0  0  0  0  0  0
   -1.2324   -2.0944    0.0960 C   0  0  1  0  0  0  0  0  0  0  0  0
   -2.0710   -2.3553   -0.5496 H   0  0  0  0  0  0  0  0  0  0  0  0
    0.0197   -2.7300   -0.4384 C   0  0  0  0  0  0  0  0  0  0  0  0
    1.1781   -2.0511   -0.5022 C   0  0  0  0  0  0  0  0  0  0  0  0
    1.2506   -0.7490   -0.0929 N   0  0  0  0  0  0  0  0  0  0  0  0
    2.4114   -2.7322   -1.0371 C   0  0  0  0  0  0  0  0  0  0  0  0
   -0.0213   -4.0717   -0.8835 C   0  0  0  0  0  0  0  0  0  0  0  0
   -0.4493   -4.3320   -1.9925 O   0  0  0  0  0  0  0  0  0  0  0  0
    0.4143   -5.0633   -0.0785 O   0  0  0  0  0  0  0  0  0  0  0  0
    0.3438   -6.3947   -0.5928 C   0  0  0  0  0  0  0  0  0  0  0  0
    1.4665   -7.2368    0.0164 C   0  0  0  0  0  0  0  0  0  0  0  0
   -1.0093   -7.0103   -0.2309 C   0  0  0  0  0  0  0  0  0  0  0  0
   -1.4965   -2.6128    1.4862 C   0  0  0  0  0  0  0  0  0  0  0  0
   -0.5995   -2.3946    2.4751 C   0  0  0  0  0  0  0  0  0  0  0  0
   -0.8090   -2.8601    3.7791 C   0  0  0  0  0  0  0  0  0  0  0  0
   -1.9197   -3.5531    4.1202 C   0  0  0  0  0  0  0  0  0  0  0  0
   -2.9083   -3.8222    3.1387 C   0  0  0  0  0  0  0  0  0  0  0  0
   -2.6900   -3.3271    1.7661 C   0  0  0  0  0  0  0  0  0  0  0  0
   -3.7215   -3.6820    1.0355 N   0  0  0  0  0  0  0  0  0  0  0  0
   -4.6234   -4.3904    1.8681 O   0  0  0  0  0  0  0  0  0  0  0  0
   -4.0598   -4.4522    3.1670 N   0  0  0  0  0  0  0  0  0  0  0  0
   -2.2490    0.2005    0.2843 C   0  0  0  0  0  0  0  0  0  0  0  0
   -2.1497    1.4126    0.3250 O   0  0  0  0  0  0  0  0  0  0  0  0
   -3.4639   -0.3804    0.3730 O   0  0  0  0  0  0  0  0  0  0  0  0
   -4.5897    0.4884    0.5131 C   0  0  0  0  0  0  0  0  0  0  0  0
    1.2495    1.7994    0.0286 H   0  0  0  0  0  0  0  0  0  0  0  0
   -0.3702    1.9313   -0.6979 H   0  0  0  0  0  0  0  0  0  0  0  0
   -0.1924    1.8470    1.0712 H   0  0  0  0  0  0  0  0  0  0  0  0
    2.1149   -0.3513    0.0961 H   0  0  0  0  0  0  0  0  0  0  0  0
    2.4886   -2.5540   -2.1096 H   0  0  0  0  0  0  0  0  0  0  0  0
    3.2934   -2.3311   -0.5378 H   0  0  0  0  0  0  0  0  0  0  0  0
    2.3444   -3.8040   -0.8507 H   0  0  0  0  0  0  0  0  0  0  0  0
    0.4542   -6.3717   -1.6769 H   0  0  0  0  0  0  0  0  0  0  0  0
    1.3561   -7.2598    1.1006 H   0  0  0  0  0  0  0  0  0  0  0  0
    1.4128   -8.2524   -0.3759 H   0  0  0  0  0  0  0  0  0  0  0  0
    2.4305   -6.7983   -0.2414 H   0  0  0  0  0  0  0  0  0  0  0  0
   -1.8092   -6.4103   -0.6649 H   0  0  0  0  0  0  0  0  0  0  0  0
   -1.0631   -8.0258   -0.6232 H   0  0  0  0  0  0  0  0  0  0  0  0
   -1.1197   -7.0333    0.8533 H   0  0  0  0  0  0  0  0  0  0  0  0
    0.3039   -1.8462    2.2525 H   0  0  0  0  0  0  0  0  0  0  0  0
   -0.0626   -2.6606    4.5337 H   0  0  0  0  0  0  0  0  0  0  0  0
   -2.0530   -3.8999    5.1343 H   0  0  0  0  0  0  0  0  0  0  0  0
   -5.5017   -0.1055    0.5732 H   0  0  0  0  0  0  0  0  0  0  0  0
   -4.4810    1.0802    1.4219 H   0  0  0  0  0  0  0  0  0  0  0  0
   -4.6452    1.1532   -0.3489 H   0  0  0  0  0  0  0  0  0  0  0  0
  1  2  1  0  0  0  0
  1 29  1  0  0  0  0
  1 30  1  0  0  0  0
  1 31  1  0  0  0  0
  2  8  1  0  0  0  0
  2  3  2  0  0  0  0
  3  4  1  0  0  0  0
  3 25  1  0  0  0  0
  4  5  1  6  0  0  0
  4  6  1  0  0  0  0
  4 16  1  0  0  0  0
  6  7  2  0  0  0  0
  6 10  1  0  0  0  0
  7  8  1  0  0  0  0
  7  9  1  0  0  0  0
  8 32  1  0  0  0  0
  9 33  1  0  0  0  0
  9 34  1  0  0  0  0
  9 35  1  0  0  0  0
 10 11  2  0  0  0  0
 10 12  1  0  0  0  0
 12 13  1  0  0  0  0
 13 14  1  0  0  0  0
 13 15  1  0  0  0  0
 13 36  1  0  0  0  0
 14 37  1  0  0  0  0
 14 38  1  0  0  0  0
 14 39  1  0  0  0  0
 15 40  1  0  0  0  0
 15 41  1  0  0  0  0
 15 42  1  0  0  0  0
 16 21  1  0  0  0  0
 16 17  2  0  0  0  0
 17 18  1  0  0  0  0
 17 43  1  0  0  0  0
 18 19  2  0  0  0  0
 18 44  1  0  0  0  0
 19 20  1  0  0  0  0
 19 45  1  0  0  0  0
 20 24  2  0  0  0  0
 20 21  1  0  0  0  0
 21 22  2  0  0  0  0
 22 23  1  0  0  0  0
 23 24  1  0  0  0  0
 25 26  2  0  0  0  0
 25 27  1  0  0  0  0
 27 28  1  0  0  0  0
 28 46  1  0  0  0  0
 28 47  1  0  0  0  0
 28 48  1  0  0  0  0
M  END
$$$$
