ZINC00001148
 OpenBabel08292219463D

 43 45  0  0  0  0  0  0  0  0999 V2000
   -0.0178    1.4648    0.0101 C   0  0  0  0  0  0  0  0  0  0  0  0
    0.0021   -0.0041    0.0020 N   0  3  0  0  0  0  0  0  0  0  0  0
    0.6897   -0.4778   -1.2066 C   0  0  0  0  0  0  0  0  0  0  0  0
    0.7126   -0.4907    1.1921 C   0  0  0  0  0  0  0  0  0  0  0  0
   -0.0711   -0.1034    2.4478 C   0  0  0  0  0  0  0  0  0  0  0  0
    0.6578   -0.6026    3.6687 C   0  0  0  0  0  0  0  0  0  0  0  0
    0.9869    0.2498    4.6469 C   0  0  0  0  0  0  0  0  0  0  0  0
    1.7090   -0.2510    5.8404 C   0  0  0  0  0  0  0  0  0  0  0  0
    2.7507   -1.1606    5.6006 C   0  0  0  0  0  0  0  0  0  0  0  0
    3.4786   -1.6867    6.6423 C   0  0  0  0  0  0  0  0  0  0  0  0
    3.1773   -1.3124    7.9400 C   0  0  0  0  0  0  0  0  0  0  0  0
    2.1575   -0.4193    8.1800 C   0  0  0  0  0  0  0  0  0  0  0  0
    1.4095    0.1263    7.1358 C   0  0  0  0  0  0  0  0  0  0  0  0
    0.3358    1.0943    7.5587 C   0  0  0  0  0  0  0  0  0  0  0  0
   -0.5748    1.4438    6.5480 O   0  0  0  0  0  0  0  0  0  0  0  0
   -0.1903    2.2131    5.5112 C   0  0  0  0  0  0  0  0  0  0  0  0
    0.6298    1.6819    4.5188 C   0  0  0  0  0  0  0  0  0  0  0  0
    1.0795    2.4600    3.4611 C   0  0  0  0  0  0  0  0  0  0  0  0
    0.6870    3.7845    3.3850 C   0  0  0  0  0  0  0  0  0  0  0  0
   -0.1447    4.3182    4.3534 C   0  0  0  0  0  0  0  0  0  0  0  0
   -0.5926    3.5387    5.4214 C   0  0  0  0  0  0  0  0  0  0  0  0
    1.0047    1.8421    0.0024 H   0  0  0  0  0  0  0  0  0  0  0  0
   -0.5450    1.8259   -0.8730 H   0  0  0  0  0  0  0  0  0  0  0  0
   -0.5280    1.8163    0.9069 H   0  0  0  0  0  0  0  0  0  0  0  0
    1.7123   -0.1005   -1.2143 H   0  0  0  0  0  0  0  0  0  0  0  0
    0.7044   -1.5677   -1.2126 H   0  0  0  0  0  0  0  0  0  0  0  0
    0.1625   -0.1167   -2.0897 H   0  0  0  0  0  0  0  0  0  0  0  0
    0.8051   -1.5756    1.1418 H   0  0  0  0  0  0  0  0  0  0  0  0
    1.7055   -0.0428    1.2310 H   0  0  0  0  0  0  0  0  0  0  0  0
   -0.1636    0.9815    2.4982 H   0  0  0  0  0  0  0  0  0  0  0  0
   -1.0640   -0.5514    2.4090 H   0  0  0  0  0  0  0  0  0  0  0  0
    0.9146   -1.6482    3.7545 H   0  0  0  0  0  0  0  0  0  0  0  0
    2.9831   -1.4509    4.5866 H   0  0  0  0  0  0  0  0  0  0  0  0
    4.2783   -2.3864    6.4492 H   0  0  0  0  0  0  0  0  0  0  0  0
    3.7421   -1.7213    8.7647 H   0  0  0  0  0  0  0  0  0  0  0  0
    1.9314   -0.1356    9.1973 H   0  0  0  0  0  0  0  0  0  0  0  0
   -0.2203    0.6520    8.3853 H   0  0  0  0  0  0  0  0  0  0  0  0
    0.8154    2.0042    7.9197 H   0  0  0  0  0  0  0  0  0  0  0  0
    1.7275    2.0372    2.7077 H   0  0  0  0  0  0  0  0  0  0  0  0
    1.0305    4.4028    2.5688 H   0  0  0  0  0  0  0  0  0  0  0  0
   -0.4542    5.3504    4.2816 H   0  0  0  0  0  0  0  0  0  0  0  0
   -1.2404    3.9617    6.1749 H   0  0  0  0  0  0  0  0  0  0  0  0
   -0.9445   -0.3533    0.0092 H   0  0  0  0  0  0  0  0  0  0  0  0
  1  2  1  0  0  0  0
  1 22  1  0  0  0  0
  1 23  1  0  0  0  0
  1 24  1  0  0  0  0
  2  3  1  0  0  0  0
  2  4  1  0  0  0  0
  2 43  1  0  0  0  0
  3 25  1  0  0  0  0
  3 26  1  0  0  0  0
  3 27  1  0  0  0  0
  4  5  1  0  0  0  0
  4 28  1  0  0  0  0
  4 29  1  0  0  0  0
  5  6  1  0  0  0  0
  5 30  1  0  0  0  0
  5 31  1  0  0  0  0
  6  7  2  0  0  0  0
  6 32  1  0  0  0  0
  7 17  1  0  0  0  0
  7  8  1  0  0  0  0
  8 13  2  0  0  0  0
  8  9  1  0  0  0  0
  9 10  2  0  0  0  0
  9 33  1  0  0  0  0
 10 11  1  0  0  0  0
 10 34  1  0  0  0  0
 11 12  2  0  0  0  0
 11 35  1  0  0  0  0
 12 13  1  0  0  0  0
 12 36  1  0  0  0  0
 13 14  1  0  0  0  0
 14 15  1  0  0  0  0
 14 37  1  0  0  0  0
 14 38  1  0  0  0  0
 15 16  1  0  0  0  0
 16 21  2  0  0  0  0
 16 17  1  0  0  0  0
 17 18  2  0  0  0  0
 18 19  1  0  0  0  0
 18 39  1  0  0  0  0
 19 20  2  0  0  0  0
 19 40  1  0  0  0  0
 20 21  1  0  0  0  0
 20 41  1  0  0  0  0
 21 42  1  0  0  0  0
M  CHG  1   2   1
M  END
$$$$
