ZINC00119344
 OpenBabel08292219463D

 23 23  0  0  0  0  0  0  0  0999 V2000
   -0.0169    1.3937    0.0097 C   0  0  0  0  0  0  0  0  0  0  0  0
    1.1662    2.0965    0.0022 C   0  0  0  0  0  0  0  0  0  0  0  0
    2.3811    1.4169   -0.0131 C   0  0  0  0  0  0  0  0  0  0  0  0
    2.4034    0.0249   -0.0208 C   0  0  0  0  0  0  0  0  0  0  0  0
    1.2237   -0.6836   -0.0138 C   0  0  0  0  0  0  0  0  0  0  0  0
    0.0021   -0.0041    0.0020 C   0  0  0  0  0  0  0  0  0  0  0  0
   -1.2644   -0.7605    0.0105 C   0  0  0  0  0  0  0  0  0  0  0  0
   -2.3263   -0.1682    0.0243 O   0  0  0  0  0  0  0  0  0  0  0  0
   -1.2445   -2.1081    0.0031 N   0  0  0  0  0  0  0  0  0  0  0  0
   -2.5022   -2.8593    0.0116 C   0  0  0  0  0  0  0  0  0  0  0  0
   -2.2050   -4.3367    0.0007 C   0  0  0  0  0  0  0  0  0  0  0  0
   -1.0497   -4.7260   -0.0129 O   0  0  0  0  0  0  0  0  0  0  0  0
   -3.1199   -5.1426    0.0055 O   0  0  0  0  0  1  0  0  0  0  0  0
    3.5749    2.1299   -0.0211 N   0  0  0  0  0  0  0  0  0  0  0  0
   -0.9590    1.9215    0.0260 H   0  0  0  0  0  0  0  0  0  0  0  0
    1.1522    3.1764    0.0078 H   0  0  0  0  0  0  0  0  0  0  0  0
    3.3474   -0.4995   -0.0326 H   0  0  0  0  0  0  0  0  0  0  0  0
    1.2416   -1.7634   -0.0204 H   0  0  0  0  0  0  0  0  0  0  0  0
   -0.3974   -2.5806   -0.0078 H   0  0  0  0  0  0  0  0  0  0  0  0
   -3.0688   -2.6092    0.9086 H   0  0  0  0  0  0  0  0  0  0  0  0
   -3.0864   -2.5997   -0.8713 H   0  0  0  0  0  0  0  0  0  0  0  0
    3.5606    3.0997   -0.0161 H   0  0  0  0  0  0  0  0  0  0  0  0
    4.4220    1.6574   -0.0317 H   0  0  0  0  0  0  0  0  0  0  0  0
  1  6  2  0  0  0  0
  1  2  1  0  0  0  0
  1 15  1  0  0  0  0
  2  3  2  0  0  0  0
  2 16  1  0  0  0  0
  3  4  1  0  0  0  0
  3 14  1  0  0  0  0
  4  5  2  0  0  0  0
  4 17  1  0  0  0  0
  5  6  1  0  0  0  0
  5 18  1  0  0  0  0
  6  7  1  0  0  0  0
  7  8  2  0  0  0  0
  7  9  1  0  0  0  0
  9 10  1  0  0  0  0
  9 19  1  0  0  0  0
 10 11  1  0  0  0  0
 10 20  1  0  0  0  0
 10 21  1  0  0  0  0
 11 12  2  0  0  0  0
 11 13  1  0  0  0  0
 14 22  1  0  0  0  0
 14 23  1  0  0  0  0
M  END
$$$$
