ZINC02548959
 OpenBabel08292219463D

 24 26  0  0  0  0  0  0  0  0999 V2000
   -0.0173    1.4248    0.0099 C   0  0  0  0  0  0  0  0  0  0  0  0
    0.0021   -0.0041    0.0020 O   0  0  0  0  0  0  0  0  0  0  0  0
    0.6064   -0.6078   -1.0569 C   0  0  0  0  0  0  0  0  0  0  0  0
   -0.1311   -0.9214   -2.1904 C   0  0  0  0  0  0  0  0  0  0  0  0
    0.4954   -1.5464   -3.2875 C   0  0  0  0  0  0  0  0  0  0  0  0
   -0.3037   -1.8688   -4.4740 C   0  0  0  0  0  0  0  0  0  0  0  0
   -1.6226   -1.5493   -4.4655 C   0  0  0  0  0  0  0  0  0  0  0  0
   -2.1860   -0.9239   -3.3328 C   0  0  0  0  0  0  0  0  0  0  0  0
   -3.3711   -0.6432   -3.3388 O   0  0  0  0  0  0  0  0  0  0  0  0
   -1.4512   -0.6307   -2.2495 O   0  0  0  0  0  0  0  0  0  0  0  0
    1.8559   -1.8518   -3.2392 C   0  0  0  0  0  0  0  0  0  0  0  0
    2.5858   -1.5345   -2.1014 C   0  0  0  0  0  0  0  0  0  0  0  0
    1.9636   -0.9051   -1.0054 C   0  0  0  0  0  0  0  0  0  0  0  0
    2.9117   -0.7189   -0.0631 O   0  0  0  0  0  0  0  0  0  0  0  0
    4.1028   -1.1818   -0.4816 C   0  0  0  0  0  0  0  0  0  0  0  0
    3.9924   -1.7026   -1.7101 C   0  0  0  0  0  0  0  0  0  0  0  0
    1.0053    1.8021    0.0021 H   0  0  0  0  0  0  0  0  0  0  0  0
   -0.5445    1.7859   -0.8732 H   0  0  0  0  0  0  0  0  0  0  0  0
   -0.5275    1.7763    0.9067 H   0  0  0  0  0  0  0  0  0  0  0  0
    0.1454   -2.3473   -5.3317 H   0  0  0  0  0  0  0  0  0  0  0  0
   -2.2394   -1.7727   -5.3235 H   0  0  0  0  0  0  0  0  0  0  0  0
    2.3369   -2.3310   -4.0791 H   0  0  0  0  0  0  0  0  0  0  0  0
    5.0159   -1.1464    0.0941 H   0  0  0  0  0  0  0  0  0  0  0  0
    4.7808   -2.1472   -2.2993 H   0  0  0  0  0  0  0  0  0  0  0  0
  1  2  1  0  0  0  0
  1 17  1  0  0  0  0
  1 18  1  0  0  0  0
  1 19  1  0  0  0  0
  2  3  1  0  0  0  0
  3 13  2  0  0  0  0
  3  4  1  0  0  0  0
  4 10  1  0  0  0  0
  4  5  2  0  0  0  0
  5  6  1  0  0  0  0
  5 11  1  0  0  0  0
  6  7  2  0  0  0  0
  6 20  1  0  0  0  0
  7  8  1  0  0  0  0
  7 21  1  0  0  0  0
  8  9  2  0  0  0  0
  8 10  1  0  0  0  0
 11 12  2  0  0  0  0
 11 22  1  0  0  0  0
 12 16  1  0  0  0  0
 12 13  1  0  0  0  0
 13 14  1  0  0  0  0
 14 15  1  0  0  0  0
 15 16  2  0  0  0  0
 15 23  1  0  0  0  0
 16 24  1  0  0  0  0
M  END
$$$$
