ZINC00896740
 OpenBabel08292219463D

 40 42  0  0  1  0  0  0  0  0999 V2000
   -0.0167    1.3792    0.0096 C   0  0  0  0  0  0  0  0  0  0  0  0
    1.1708    2.0869    0.0021 C   0  0  0  0  0  0  0  0  0  0  0  0
    2.3773    1.4131   -0.0135 C   0  0  0  0  0  0  0  0  0  0  0  0
    2.3974    0.0294   -0.0212 C   0  0  0  0  0  0  0  0  0  0  0  0
    1.2096   -0.6792   -0.0132 C   0  0  0  0  0  0  0  0  0  0  0  0
    0.0021   -0.0041    0.0020 C   0  0  0  0  0  0  0  0  0  0  0  0
   -1.4893   -0.8926    0.0121 Cl  0  0  0  0  0  0  0  0  0  0  0  0
    3.9130   -0.8168   -0.0414 Cl  0  0  0  0  0  0  0  0  0  0  0  0
    3.6714    2.1853   -0.0227 C   0  0  0  0  0  0  0  0  0  0  0  0
    3.3901    3.5863   -0.0128 O   0  0  0  0  0  0  0  0  0  0  0  0
    4.5556    4.4132   -0.0205 C   0  0  1  0  0  0  0  0  0  0  0  0
    5.3720    3.8950    0.4825 H   0  0  0  0  0  0  0  0  0  0  0  0
    4.9569    4.7156   -1.4656 C   0  0  0  0  0  0  0  0  0  0  0  0
    5.3585    3.4737   -2.1309 N   0  0  0  0  0  0  0  0  0  0  0  0
    6.6206    2.9454   -2.1716 C   0  0  0  0  0  0  0  0  0  0  0  0
    6.5424    1.8038   -2.8816 C   0  0  0  0  0  0  0  0  0  0  0  0
    5.2674    1.6394   -3.2640 N   0  0  0  0  0  4  0  0  0  0  0  0
    4.5515    2.6333   -2.8137 C   0  0  0  0  0  0  0  0  0  0  0  0
    4.2606    5.7038    0.6995 C   0  0  0  0  0  0  0  0  0  0  0  0
    2.9600    6.1639    0.7884 C   0  0  0  0  0  0  0  0  0  0  0  0
    2.6886    7.3473    1.4484 C   0  0  0  0  0  0  0  0  0  0  0  0
    3.7188    8.0723    2.0212 C   0  0  0  0  0  0  0  0  0  0  0  0
    5.0201    7.6123    1.9331 C   0  0  0  0  0  0  0  0  0  0  0  0
    5.2906    6.4250    1.2763 C   0  0  0  0  0  0  0  0  0  0  0  0
    6.9229    5.8437    1.1703 Cl  0  0  0  0  0  0  0  0  0  0  0  0
    3.3778    9.5592    2.8499 Cl  0  0  0  0  0  0  0  0  0  0  0  0
   -0.9592    1.9062    0.0260 H   0  0  0  0  0  0  0  0  0  0  0  0
    1.1557    3.1667    0.0080 H   0  0  0  0  0  0  0  0  0  0  0  0
    1.2248   -1.7590   -0.0191 H   0  0  0  0  0  0  0  0  0  0  0  0
    4.2557    1.9258    0.8601 H   0  0  0  0  0  0  0  0  0  0  0  0
    4.2377    1.9347   -0.9198 H   0  0  0  0  0  0  0  0  0  0  0  0
    4.1099    5.1534   -1.9939 H   0  0  0  0  0  0  0  0  0  0  0  0
    5.7910    5.4172   -1.4718 H   0  0  0  0  0  0  0  0  0  0  0  0
    7.5085    3.3639   -1.7212 H   0  0  0  0  0  0  0  0  0  0  0  0
    7.3626    1.1373   -3.1041 H   0  0  0  0  0  0  0  0  0  0  0  0
    3.4900    2.7635   -2.9643 H   0  0  0  0  0  0  0  0  0  0  0  0
    2.1557    5.5984    0.3415 H   0  0  0  0  0  0  0  0  0  0  0  0
    1.6724    7.7066    1.5169 H   0  0  0  0  0  0  0  0  0  0  0  0
    5.8245    8.1778    2.3799 H   0  0  0  0  0  0  0  0  0  0  0  0
    4.9299    0.8970   -3.7893 H   0  0  0  0  0  0  0  0  0  0  0  0
  1  6  2  0  0  0  0
  1  2  1  0  0  0  0
  1 27  1  0  0  0  0
  2  3  2  0  0  0  0
  2 28  1  0  0  0  0
  3  4  1  0  0  0  0
  3  9  1  0  0  0  0
  4  5  2  0  0  0  0
  4  8  1  0  0  0  0
  5  6  1  0  0  0  0
  5 29  1  0  0  0  0
  6  7  1  0  0  0  0
  9 10  1  0  0  0  0
  9 30  1  0  0  0  0
  9 31  1  0  0  0  0
 10 11  1  0  0  0  0
 11 12  1  1  0  0  0
 11 13  1  0  0  0  0
 11 19  1  0  0  0  0
 13 14  1  0  0  0  0
 13 32  1  0  0  0  0
 13 33  1  0  0  0  0
 14 18  1  0  0  0  0
 14 15  1  0  0  0  0
 15 16  2  0  0  0  0
 15 34  1  0  0  0  0
 16 17  1  0  0  0  0
 16 35  1  0  0  0  0
 17 18  2  0  0  0  0
 17 40  1  0  0  0  0
 18 36  1  0  0  0  0
 19 24  2  0  0  0  0
 19 20  1  0  0  0  0
 20 21  2  0  0  0  0
 20 37  1  0  0  0  0
 21 22  1  0  0  0  0
 21 38  1  0  0  0  0
 22 23  2  0  0  0  0
 22 26  1  0  0  0  0
 23 24  1  0  0  0  0
 23 39  1  0  0  0  0
 24 25  1  0  0  0  0
M  END
$$$$
