ZINC04212854
 OpenBabel08292219463D

 56 59  0  0  1  0  0  0  0  0999 V2000
    1.2468    1.0399    1.0747 C   0  0  0  0  0  0  0  0  0  0  0  0
    0.9870   -0.4464    0.8213 C   0  0  2  0  0  0  0  0  0  0  0  0
    1.7806   -0.8643    0.2019 H   0  0  0  0  0  0  0  0  0  0  0  0
   -0.3884   -0.6361    0.1252 C   0  0  0  0  0  0  0  0  0  0  0  0
   -1.3298   -0.9260    1.2994 C   0  0  1  0  0  0  0  0  0  0  0  0
   -1.5492   -0.0082    1.8451 H   0  0  0  0  0  0  0  0  0  0  0  0
   -2.6162   -1.6521    0.9507 C   0  0  2  0  0  0  0  0  0  0  0  0
   -2.3837   -2.6000    0.4654 H   0  0  0  0  0  0  0  0  0  0  0  0
   -3.4635   -0.7873    0.0151 C   0  0  0  0  0  0  0  0  0  0  0  0
   -4.7423   -1.5398   -0.3661 C   0  0  0  0  0  0  0  0  0  0  0  0
   -5.4519   -1.9426    0.9130 C   0  0  0  0  0  0  0  0  0  0  0  0
   -6.7339   -1.6382    1.0599 C   0  0  0  0  0  0  0  0  0  0  0  0
   -7.4504   -1.9944    2.2943 C   0  0  0  0  0  0  0  0  0  0  0  0
   -8.6365   -1.7517    2.4175 O   0  0  0  0  0  0  0  0  0  0  0  0
   -6.6999   -2.6519    3.3775 C   0  0  0  0  0  0  0  0  0  0  0  0
   -5.4221   -2.9522    3.2064 C   0  0  0  0  0  0  0  0  0  0  0  0
   -4.6604   -2.6748    1.9560 C   0  0  2  0  0  0  0  0  0  0  0  0
   -3.3689   -1.9132    2.2652 C   0  0  1  0  0  0  0  0  0  0  0  0
   -2.5184   -2.7040    3.2545 C   0  0  2  0  0  0  0  0  0  0  0  0
   -3.0544   -2.7832    4.2003 H   0  0  0  0  0  0  0  0  0  0  0  0
   -1.1604   -2.0284    3.5029 C   0  0  0  0  0  0  0  0  0  0  0  0
   -0.4656   -1.8794    2.1676 C   0  0  2  0  0  0  0  0  0  0  0  0
    0.9058   -1.2089    2.1672 C   0  0  1  0  0  0  0  0  0  0  0  0
    0.9859   -0.5120    3.0015 H   0  0  0  0  0  0  0  0  0  0  0  0
    1.9956   -2.2467    2.2460 C   0  0  0  0  0  0  0  0  0  0  0  0
    2.4842   -2.6873    1.2333 O   0  0  0  0  0  0  0  0  0  0  0  0
    2.4759   -2.7347    3.5885 C   0  0  0  0  0  0  0  0  0  0  0  0
    3.5049   -3.7084    3.4012 O   0  0  0  0  0  0  0  0  0  0  0  0
   -0.3754   -3.2521    1.4979 C   0  0  0  0  0  0  0  0  0  0  0  0
   -2.2963   -4.0160    2.7336 O   0  0  0  0  0  0  0  0  0  0  0  0
   -3.7079   -0.6895    2.8525 F   0  0  0  0  0  0  0  0  0  0  0  0
   -4.2321   -4.0176    1.3608 C   0  0  0  0  0  0  0  0  0  0  0  0
    2.1956    1.1589    1.5979 H   0  0  0  0  0  0  0  0  0  0  0  0
    1.2881    1.5690    0.1226 H   0  0  0  0  0  0  0  0  0  0  0  0
    0.4419    1.4508    1.6841 H   0  0  0  0  0  0  0  0  0  0  0  0
   -0.6873    0.2751   -0.3929 H   0  0  0  0  0  0  0  0  0  0  0  0
   -0.3590   -1.4806   -0.5632 H   0  0  0  0  0  0  0  0  0  0  0  0
   -3.7264    0.1425    0.5195 H   0  0  0  0  0  0  0  0  0  0  0  0
   -2.8931   -0.5617   -0.8860 H   0  0  0  0  0  0  0  0  0  0  0  0
   -5.3889   -0.8909   -0.9569 H   0  0  0  0  0  0  0  0  0  0  0  0
   -4.4880   -2.4297   -0.9418 H   0  0  0  0  0  0  0  0  0  0  0  0
   -7.2564   -1.1241    0.2668 H   0  0  0  0  0  0  0  0  0  0  0  0
   -7.1910   -2.8883    4.3099 H   0  0  0  0  0  0  0  0  0  0  0  0
   -4.8994   -3.4275    4.0233 H   0  0  0  0  0  0  0  0  0  0  0  0
   -1.3112   -1.0420    3.9417 H   0  0  0  0  0  0  0  0  0  0  0  0
   -0.5560   -2.6437    4.1693 H   0  0  0  0  0  0  0  0  0  0  0  0
    2.8702   -1.8948    4.1606 H   0  0  0  0  0  0  0  0  0  0  0  0
    1.6440   -3.1848    4.1303 H   0  0  0  0  0  0  0  0  0  0  0  0
    3.8618   -4.0670    4.2253 H   0  0  0  0  0  0  0  0  0  0  0  0
    0.2630   -3.1854    0.6170 H   0  0  0  0  0  0  0  0  0  0  0  0
    0.0473   -3.9715    2.1993 H   0  0  0  0  0  0  0  0  0  0  0  0
   -1.3723   -3.5774    1.2004 H   0  0  0  0  0  0  0  0  0  0  0  0
   -1.7616   -4.5817    3.3074 H   0  0  0  0  0  0  0  0  0  0  0  0
   -3.3774   -3.8666    0.7014 H   0  0  0  0  0  0  0  0  0  0  0  0
   -3.9548   -4.6994    2.1647 H   0  0  0  0  0  0  0  0  0  0  0  0
   -5.0589   -4.4433    0.7923 H   0  0  0  0  0  0  0  0  0  0  0  0
  1  2  1  0  0  0  0
  1 33  1  0  0  0  0
  1 34  1  0  0  0  0
  1 35  1  0  0  0  0
  2  3  1  6  0  0  0
  2 23  1  0  0  0  0
  2  4  1  0  0  0  0
  4  5  1  0  0  0  0
  4 36  1  0  0  0  0
  4 37  1  0  0  0  0
  5  6  1  1  0  0  0
  5 22  1  0  0  0  0
  5  7  1  0  0  0  0
  7  8  1  6  0  0  0
  7 18  1  0  0  0  0
  7  9  1  0  0  0  0
  9 10  1  0  0  0  0
  9 38  1  0  0  0  0
  9 39  1  0  0  0  0
 10 11  1  0  0  0  0
 10 40  1  0  0  0  0
 10 41  1  0  0  0  0
 11 17  1  0  0  0  0
 11 12  2  0  0  0  0
 12 13  1  0  0  0  0
 12 42  1  0  0  0  0
 13 14  2  0  0  0  0
 13 15  1  0  0  0  0
 15 16  2  0  0  0  0
 15 43  1  0  0  0  0
 16 17  1  0  0  0  0
 16 44  1  0  0  0  0
 17 18  1  0  0  0  0
 17 32  1  6  0  0  0
 18 19  1  0  0  0  0
 18 31  1  1  0  0  0
 19 20  1  1  0  0  0
 19 21  1  0  0  0  0
 19 30  1  0  0  0  0
 21 22  1  0  0  0  0
 21 45  1  0  0  0  0
 21 46  1  0  0  0  0
 22 23  1  0  0  0  0
 22 29  1  6  0  0  0
 23 24  1  1  0  0  0
 23 25  1  0  0  0  0
 25 26  2  0  0  0  0
 25 27  1  0  0  0  0
 27 28  1  0  0  0  0
 27 47  1  0  0  0  0
 27 48  1  0  0  0  0
 28 49  1  0  0  0  0
 29 50  1  0  0  0  0
 29 51  1  0  0  0  0
 29 52  1  0  0  0  0
 30 53  1  0  0  0  0
 32 54  1  0  0  0  0
 32 55  1  0  0  0  0
 32 56  1  0  0  0  0
M  END
$$$$
