ZINC00156792
 OpenBabel08292219463D

 53 53  0  0  1  0  0  0  0  0999 V2000
   -0.3753    1.5283   -1.2809 C   0  0  0  0  0  0  0  0  0  0  0  0
   -0.3588   -0.0015   -1.2969 C   0  0  0  0  0  0  0  0  0  0  0  0
   -1.5920   -0.5325   -0.5632 C   0  0  0  0  0  0  0  0  0  0  0  0
   -1.5758   -2.0394   -0.5790 C   0  0  0  0  0  0  0  0  0  0  0  0
   -0.6673   -2.6304   -1.1236 O   0  0  0  0  0  0  0  0  0  0  0  0
   -2.5708   -2.7302    0.0119 N   0  0  0  0  0  0  0  0  0  0  0  0
   -2.6076   -4.1276   -0.0857 C   0  0  0  0  0  0  0  0  0  0  0  0
   -1.4206   -4.8544   -0.0889 C   0  0  0  0  0  0  0  0  0  0  0  0
   -1.4451   -6.2308   -0.1841 C   0  0  0  0  0  0  0  0  0  0  0  0
   -2.6552   -6.9019   -0.2780 C   0  0  0  0  0  0  0  0  0  0  0  0
   -3.8575   -6.1765   -0.2754 C   0  0  0  0  0  0  0  0  0  0  0  0
   -3.8232   -4.7808   -0.1727 C   0  0  0  0  0  0  0  0  0  0  0  0
   -5.1430   -6.8781   -0.3747 C   0  0  0  0  0  0  0  0  0  0  0  0
   -5.1688   -8.0879   -0.4594 O   0  0  0  0  0  0  0  0  0  0  0  0
   -6.4308   -6.0954   -0.3716 C   0  0  0  0  0  0  0  0  0  0  0  0
   -2.6771   -8.2550   -0.3724 O   0  0  0  0  0  0  0  0  0  0  0  0
   -1.4156   -8.9261   -0.3693 C   0  0  0  0  0  0  0  0  0  0  0  0
   -1.6404  -10.4353   -0.4825 C   0  0  2  0  0  0  0  0  0  0  0  0
   -2.3093  -10.7636    0.3130 H   0  0  0  0  0  0  0  0  0  0  0  0
   -0.3000  -11.1617   -0.3541 C   0  0  0  0  0  0  0  0  0  0  0  0
   -0.5159  -12.6107   -0.4627 N   0  3  0  0  0  0  0  0  0  0  0  0
    0.7711  -13.3081   -0.3394 C   0  0  0  0  0  0  0  0  0  0  0  0
    0.5331  -14.8194   -0.3275 C   0  0  0  0  0  0  0  0  0  0  0  0
    1.6653  -12.9420   -1.5257 C   0  0  0  0  0  0  0  0  0  0  0  0
   -2.2255  -10.7359   -1.7511 O   0  0  0  0  0  0  0  0  0  0  0  0
    0.5032    1.9066   -1.8036 H   0  0  0  0  0  0  0  0  0  0  0  0
   -1.2764    1.8872   -1.7781 H   0  0  0  0  0  0  0  0  0  0  0  0
   -0.3643    1.8810   -0.2496 H   0  0  0  0  0  0  0  0  0  0  0  0
   -0.3698   -0.3542   -2.3282 H   0  0  0  0  0  0  0  0  0  0  0  0
    0.5423   -0.3604   -0.7998 H   0  0  0  0  0  0  0  0  0  0  0  0
   -1.5810   -0.1798    0.4681 H   0  0  0  0  0  0  0  0  0  0  0  0
   -2.4931   -0.1736   -1.0604 H   0  0  0  0  0  0  0  0  0  0  0  0
   -3.2614   -2.2601    0.5048 H   0  0  0  0  0  0  0  0  0  0  0  0
   -0.4747   -4.3381   -0.0169 H   0  0  0  0  0  0  0  0  0  0  0  0
   -0.5194   -6.7870   -0.1859 H   0  0  0  0  0  0  0  0  0  0  0  0
   -4.7435   -4.2155   -0.1659 H   0  0  0  0  0  0  0  0  0  0  0  0
   -6.2091   -5.0313   -0.2893 H   0  0  0  0  0  0  0  0  0  0  0  0
   -6.9723   -6.2830   -1.2988 H   0  0  0  0  0  0  0  0  0  0  0  0
   -7.0425   -6.4056    0.4756 H   0  0  0  0  0  0  0  0  0  0  0  0
   -0.8195   -8.5832   -1.2151 H   0  0  0  0  0  0  0  0  0  0  0  0
   -0.8891   -8.7059    0.5593 H   0  0  0  0  0  0  0  0  0  0  0  0
    0.3689  -10.8333   -1.1496 H   0  0  0  0  0  0  0  0  0  0  0  0
    0.1463  -10.9324    0.6136 H   0  0  0  0  0  0  0  0  0  0  0  0
   -1.1350  -12.9146    0.2737 H   0  0  0  0  0  0  0  0  0  0  0  0
    1.2586  -13.0097    0.5887 H   0  0  0  0  0  0  0  0  0  0  0  0
    0.0456  -15.1178   -1.2556 H   0  0  0  0  0  0  0  0  0  0  0  0
    1.4880  -15.3369   -0.2360 H   0  0  0  0  0  0  0  0  0  0  0  0
   -0.1039  -15.0802    0.5177 H   0  0  0  0  0  0  0  0  0  0  0  0
    1.8349  -11.8653   -1.5343 H   0  0  0  0  0  0  0  0  0  0  0  0
    2.6202  -13.4595   -1.4342 H   0  0  0  0  0  0  0  0  0  0  0  0
    1.1778  -13.2404   -2.4539 H   0  0  0  0  0  0  0  0  0  0  0  0
   -1.6836  -10.4707   -2.5069 H   0  0  0  0  0  0  0  0  0  0  0  0
   -0.9290  -12.8229   -1.3585 H   0  0  0  0  0  0  0  0  0  0  0  0
  1  2  1  0  0  0  0
  1 26  1  0  0  0  0
  1 27  1  0  0  0  0
  1 28  1  0  0  0  0
  2  3  1  0  0  0  0
  2 29  1  0  0  0  0
  2 30  1  0  0  0  0
  3  4  1  0  0  0  0
  3 31  1  0  0  0  0
  3 32  1  0  0  0  0
  4  5  2  0  0  0  0
  4  6  1  0  0  0  0
  6  7  1  0  0  0  0
  6 33  1  0  0  0  0
  7 12  2  0  0  0  0
  7  8  1  0  0  0  0
  8  9  2  0  0  0  0
  8 34  1  0  0  0  0
  9 10  1  0  0  0  0
  9 35  1  0  0  0  0
 10 11  2  0  0  0  0
 10 16  1  0  0  0  0
 11 12  1  0  0  0  0
 11 13  1  0  0  0  0
 12 36  1  0  0  0  0
 13 14  2  0  0  0  0
 13 15  1  0  0  0  0
 15 37  1  0  0  0  0
 15 38  1  0  0  0  0
 15 39  1  0  0  0  0
 16 17  1  0  0  0  0
 17 18  1  0  0  0  0
 17 40  1  0  0  0  0
 17 41  1  0  0  0  0
 18 19  1  1  0  0  0
 18 20  1  0  0  0  0
 18 25  1  0  0  0  0
 20 21  1  0  0  0  0
 20 42  1  0  0  0  0
 20 43  1  0  0  0  0
 21 22  1  0  0  0  0
 21 44  1  0  0  0  0
 21 53  1  0  0  0  0
 22 23  1  0  0  0  0
 22 24  1  0  0  0  0
 22 45  1  0  0  0  0
 23 46  1  0  0  0  0
 23 47  1  0  0  0  0
 23 48  1  0  0  0  0
 24 49  1  0  0  0  0
 24 50  1  0  0  0  0
 24 51  1  0  0  0  0
 25 52  1  0  0  0  0
M  CHG  1  21   1
M  END
$$$$
