ZINC01851149
 OpenBabel08292219463D

 58 61  0  0  0  0  0  0  0  0999 V2000
   -0.0167    1.3781    0.0096 C   0  0  0  0  0  0  0  0  0  0  0  0
    1.1690    2.0873    0.0021 C   0  0  0  0  0  0  0  0  0  0  0  0
    2.3816    1.4109   -0.0131 C   0  0  0  0  0  0  0  0  0  0  0  0
    2.3986    0.0211   -0.0208 C   0  0  0  0  0  0  0  0  0  0  0  0
    1.2084   -0.6828   -0.0132 C   0  0  0  0  0  0  0  0  0  0  0  0
    0.0021   -0.0041    0.0020 C   0  0  0  0  0  0  0  0  0  0  0  0
    1.2271   -2.4187   -0.0233 Cl  0  0  0  0  0  0  0  0  0  0  0  0
    3.9117   -0.8297   -0.0404 Cl  0  0  0  0  0  0  0  0  0  0  0  0
    3.5822    2.1260   -0.0212 N   0  0  0  0  0  0  0  0  0  0  0  0
    4.2166    2.5248   -1.2872 C   0  0  0  0  0  0  0  0  0  0  0  0
    5.6874    2.0967   -1.2494 C   0  0  0  0  0  0  0  0  0  0  0  0
    6.3270    2.6517   -0.0498 N   0  3  0  0  0  0  0  0  0  0  0  0
    5.7166    2.0749    1.1547 C   0  0  0  0  0  0  0  0  0  0  0  0
    4.2444    2.5067    1.2361 C   0  0  0  0  0  0  0  0  0  0  0  0
    7.7610    2.3338   -0.0701 C   0  0  0  0  0  0  0  0  0  0  0  0
    8.4515    3.0158    1.1127 C   0  0  0  0  0  0  0  0  0  0  0  0
    9.9450    2.6847    1.0915 C   0  0  0  0  0  0  0  0  0  0  0  0
   10.6355    3.3667    2.2743 C   0  0  0  0  0  0  0  0  0  0  0  0
   12.0305    3.0574    2.2545 O   0  0  0  0  0  0  0  0  0  0  0  0
   12.7944    3.5890    3.2448 C   0  0  0  0  0  0  0  0  0  0  0  0
   12.2111    4.3876    4.2189 C   0  0  0  0  0  0  0  0  0  0  0  0
   12.9865    4.9295    5.2261 C   0  0  0  0  0  0  0  0  0  0  0  0
   14.3441    4.6777    5.2669 C   0  0  0  0  0  0  0  0  0  0  0  0
   14.9331    3.8788    4.2952 C   0  0  0  0  0  0  0  0  0  0  0  0
   14.1552    3.3295    3.2858 C   0  0  0  0  0  0  0  0  0  0  0  0
   16.3074    3.6248    4.3397 N   0  0  0  0  0  0  0  0  0  0  0  0
   17.0003    3.8176    5.4770 C   0  0  0  0  0  0  0  0  0  0  0  0
   18.1945    3.6066    5.4945 O   0  0  0  0  0  0  0  0  0  0  0  0
   16.3105    4.2925    6.7275 C   0  0  0  0  0  0  0  0  0  0  0  0
   15.1900    5.2680    6.3653 C   0  0  0  0  0  0  0  0  0  0  0  0
   -0.9596    1.9044    0.0260 H   0  0  0  0  0  0  0  0  0  0  0  0
    1.1527    3.1672    0.0077 H   0  0  0  0  0  0  0  0  0  0  0  0
   -0.9265   -0.5556    0.0083 H   0  0  0  0  0  0  0  0  0  0  0  0
    3.7134    2.0333   -2.1198 H   0  0  0  0  0  0  0  0  0  0  0  0
    4.1529    3.6066   -1.4040 H   0  0  0  0  0  0  0  0  0  0  0  0
    5.7487    1.0088   -1.2236 H   0  0  0  0  0  0  0  0  0  0  0  0
    6.1971    2.4687   -2.1381 H   0  0  0  0  0  0  0  0  0  0  0  0
    5.7771    0.9876    1.1077 H   0  0  0  0  0  0  0  0  0  0  0  0
    6.2479    2.4307    2.0374 H   0  0  0  0  0  0  0  0  0  0  0  0
    4.1834    3.5868    1.3697 H   0  0  0  0  0  0  0  0  0  0  0  0
    3.7595    2.0032    2.0724 H   0  0  0  0  0  0  0  0  0  0  0  0
    7.8950    1.2546    0.0040 H   0  0  0  0  0  0  0  0  0  0  0  0
    8.1993    2.6912   -1.0020 H   0  0  0  0  0  0  0  0  0  0  0  0
    8.3175    4.0950    1.0386 H   0  0  0  0  0  0  0  0  0  0  0  0
    8.0132    2.6584    2.0445 H   0  0  0  0  0  0  0  0  0  0  0  0
   10.0790    1.6055    1.1656 H   0  0  0  0  0  0  0  0  0  0  0  0
   10.3833    3.0420    0.1597 H   0  0  0  0  0  0  0  0  0  0  0  0
   10.5015    4.4459    2.2002 H   0  0  0  0  0  0  0  0  0  0  0  0
   10.1972    3.0093    3.2062 H   0  0  0  0  0  0  0  0  0  0  0  0
   11.1499    4.5859    4.1893 H   0  0  0  0  0  0  0  0  0  0  0  0
   12.5305    5.5511    5.9824 H   0  0  0  0  0  0  0  0  0  0  0  0
   14.6099    2.7045    2.5314 H   0  0  0  0  0  0  0  0  0  0  0  0
   16.7645    3.3072    3.5453 H   0  0  0  0  0  0  0  0  0  0  0  0
   15.8894    3.4371    7.2558 H   0  0  0  0  0  0  0  0  0  0  0  0
   17.0331    4.7940    7.3713 H   0  0  0  0  0  0  0  0  0  0  0  0
   15.6229    6.2086    6.0246 H   0  0  0  0  0  0  0  0  0  0  0  0
   14.5699    5.4506    7.2429 H   0  0  0  0  0  0  0  0  0  0  0  0
    6.2073    3.6535   -0.0392 H   0  0  0  0  0  0  0  0  0  0  0  0
  1  6  2  0  0  0  0
  1  2  1  0  0  0  0
  1 31  1  0  0  0  0
  2  3  2  0  0  0  0
  2 32  1  0  0  0  0
  3  4  1  0  0  0  0
  3  9  1  0  0  0  0
  4  5  2  0  0  0  0
  4  8  1  0  0  0  0
  5  6  1  0  0  0  0
  5  7  1  0  0  0  0
  6 33  1  0  0  0  0
  9 14  1  0  0  0  0
  9 10  1  0  0  0  0
 10 11  1  0  0  0  0
 10 34  1  0  0  0  0
 10 35  1  0  0  0  0
 11 12  1  0  0  0  0
 11 36  1  0  0  0  0
 11 37  1  0  0  0  0
 12 13  1  0  0  0  0
 12 15  1  0  0  0  0
 12 58  1  0  0  0  0
 13 14  1  0  0  0  0
 13 38  1  0  0  0  0
 13 39  1  0  0  0  0
 14 40  1  0  0  0  0
 14 41  1  0  0  0  0
 15 16  1  0  0  0  0
 15 42  1  0  0  0  0
 15 43  1  0  0  0  0
 16 17  1  0  0  0  0
 16 44  1  0  0  0  0
 16 45  1  0  0  0  0
 17 18  1  0  0  0  0
 17 46  1  0  0  0  0
 17 47  1  0  0  0  0
 18 19  1  0  0  0  0
 18 48  1  0  0  0  0
 18 49  1  0  0  0  0
 19 20  1  0  0  0  0
 20 25  2  0  0  0  0
 20 21  1  0  0  0  0
 21 22  2  0  0  0  0
 21 50  1  0  0  0  0
 22 23  1  0  0  0  0
 22 51  1  0  0  0  0
 23 30  1  0  0  0  0
 23 24  2  0  0  0  0
 24 25  1  0  0  0  0
 24 26  1  0  0  0  0
 25 52  1  0  0  0  0
 26 27  1  0  0  0  0
 26 53  1  0  0  0  0
 27 28  2  0  0  0  0
 27 29  1  0  0  0  0
 29 30  1  0  0  0  0
 29 54  1  0  0  0  0
 29 55  1  0  0  0  0
 30 56  1  0  0  0  0
 30 57  1  0  0  0  0
M  CHG  1  12   1
M  END
$$$$
