ZINC19418959
 OpenBabel08292219463D

 53 56  0  0  0  0  0  0  0  0999 V2000
    0.4204    1.5427   -0.3194 C   0  0  0  0  0  0  0  0  0  0  0  0
    0.3487    0.0771   -0.2504 N   0  3  0  0  0  0  0  0  0  0  0  0
    0.9699   -0.5001   -1.4498 C   0  0  0  0  0  0  0  0  0  0  0  0
    0.8787   -2.0264   -1.3873 C   0  0  0  0  0  0  0  0  0  0  0  0
    1.5653   -2.5063   -0.1797 N   0  0  0  0  0  0  0  0  0  0  0  0
    0.9701   -1.9172    1.0281 C   0  0  0  0  0  0  0  0  0  0  0  0
    1.0605   -0.3919    0.9458 C   0  0  0  0  0  0  0  0  0  0  0  0
    1.5488   -3.9737   -0.1128 C   0  0  0  0  0  0  0  0  0  0  0  0
    2.4763   -4.4435    1.0097 C   0  0  0  0  0  0  0  0  0  0  0  0
    2.4590   -5.9719    1.0794 C   0  0  0  0  0  0  0  0  0  0  0  0
    3.3471   -6.4217    2.1542 N   0  0  0  0  0  0  0  0  0  0  0  0
    2.7947   -6.5759    3.4230 C   0  0  0  0  0  0  0  0  0  0  0  0
    1.6439   -5.8634    3.7445 C   0  0  0  0  0  0  0  0  0  0  0  0
    1.0657   -5.9970    4.9923 C   0  0  0  0  0  0  0  0  0  0  0  0
    1.6269   -6.8403    5.9324 C   0  0  0  0  0  0  0  0  0  0  0  0
    2.7718   -7.5521    5.6246 C   0  0  0  0  0  0  0  0  0  0  0  0
    3.3588   -7.4215    4.3741 C   0  0  0  0  0  0  0  0  0  0  0  0
    4.8225   -8.3286    4.0036 S   0  0  0  0  0  0  0  0  0  0  0  0
    5.4784   -7.5174    2.5843 C   0  0  0  0  0  0  0  0  0  0  0  0
    4.6781   -6.6680    1.8281 C   0  0  0  0  0  0  0  0  0  0  0  0
    5.2223   -6.0407    0.7125 C   0  0  0  0  0  0  0  0  0  0  0  0
    6.5389   -6.2664    0.3573 C   0  0  0  0  0  0  0  0  0  0  0  0
    7.3258   -7.1180    1.1085 C   0  0  0  0  0  0  0  0  0  0  0  0
    6.7996   -7.7356    2.2221 C   0  0  0  0  0  0  0  0  0  0  0  0
    7.1179   -5.5814   -0.8538 C   0  0  0  0  0  0  0  0  0  0  0  0
    7.6743   -4.3552   -0.4745 F   0  0  0  0  0  0  0  0  0  0  0  0
    8.1112   -6.3901   -1.4165 F   0  0  0  0  0  0  0  0  0  0  0  0
    6.1057   -5.3632   -1.7946 F   0  0  0  0  0  0  0  0  0  0  0  0
    1.4638    1.8534   -0.3722 H   0  0  0  0  0  0  0  0  0  0  0  0
   -0.1078    1.8910   -1.2070 H   0  0  0  0  0  0  0  0  0  0  0  0
   -0.0417    1.9713    0.5699 H   0  0  0  0  0  0  0  0  0  0  0  0
    0.4490   -0.1411   -2.3374 H   0  0  0  0  0  0  0  0  0  0  0  0
    2.0168   -0.2004   -1.4968 H   0  0  0  0  0  0  0  0  0  0  0  0
   -0.1685   -2.3271   -1.3541 H   0  0  0  0  0  0  0  0  0  0  0  0
    1.3528   -2.4555   -2.2701 H   0  0  0  0  0  0  0  0  0  0  0  0
   -0.0756   -2.2162    1.1011 H   0  0  0  0  0  0  0  0  0  0  0  0
    1.5109   -2.2667    1.9076 H   0  0  0  0  0  0  0  0  0  0  0  0
    2.1070   -0.0926    0.8865 H   0  0  0  0  0  0  0  0  0  0  0  0
    0.6068    0.0475    1.8341 H   0  0  0  0  0  0  0  0  0  0  0  0
    0.5337   -4.3169    0.0871 H   0  0  0  0  0  0  0  0  0  0  0  0
    1.8908   -4.3847   -1.0626 H   0  0  0  0  0  0  0  0  0  0  0  0
    3.4913   -4.1004    0.8098 H   0  0  0  0  0  0  0  0  0  0  0  0
    2.1342   -4.0326    1.9596 H   0  0  0  0  0  0  0  0  0  0  0  0
    1.4439   -6.3150    1.2793 H   0  0  0  0  0  0  0  0  0  0  0  0
    2.8011   -6.3828    0.1296 H   0  0  0  0  0  0  0  0  0  0  0  0
    1.2002   -5.2020    3.0150 H   0  0  0  0  0  0  0  0  0  0  0  0
    0.1723   -5.4402    5.2339 H   0  0  0  0  0  0  0  0  0  0  0  0
    1.1719   -6.9431    6.9065 H   0  0  0  0  0  0  0  0  0  0  0  0
    3.2102   -8.2112    6.3594 H   0  0  0  0  0  0  0  0  0  0  0  0
    4.6131   -5.3736    0.1208 H   0  0  0  0  0  0  0  0  0  0  0  0
    8.3536   -7.2935    0.8271 H   0  0  0  0  0  0  0  0  0  0  0  0
    7.4163   -8.4005    2.8086 H   0  0  0  0  0  0  0  0  0  0  0  0
   -0.6172   -0.2102   -0.2010 H   0  0  0  0  0  0  0  0  0  0  0  0
  1  2  1  0  0  0  0
  1 29  1  0  0  0  0
  1 30  1  0  0  0  0
  1 31  1  0  0  0  0
  2  7  1  0  0  0  0
  2  3  1  0  0  0  0
  2 53  1  0  0  0  0
  3  4  1  0  0  0  0
  3 32  1  0  0  0  0
  3 33  1  0  0  0  0
  4  5  1  0  0  0  0
  4 34  1  0  0  0  0
  4 35  1  0  0  0  0
  5  6  1  0  0  0  0
  5  8  1  0  0  0  0
  6  7  1  0  0  0  0
  6 36  1  0  0  0  0
  6 37  1  0  0  0  0
  7 38  1  0  0  0  0
  7 39  1  0  0  0  0
  8  9  1  0  0  0  0
  8 40  1  0  0  0  0
  8 41  1  0  0  0  0
  9 10  1  0  0  0  0
  9 42  1  0  0  0  0
  9 43  1  0  0  0  0
 10 11  1  0  0  0  0
 10 44  1  0  0  0  0
 10 45  1  0  0  0  0
 11 20  1  0  0  0  0
 11 12  1  0  0  0  0
 12 17  2  0  0  0  0
 12 13  1  0  0  0  0
 13 14  2  0  0  0  0
 13 46  1  0  0  0  0
 14 15  1  0  0  0  0
 14 47  1  0  0  0  0
 15 16  2  0  0  0  0
 15 48  1  0  0  0  0
 16 17  1  0  0  0  0
 16 49  1  0  0  0  0
 17 18  1  0  0  0  0
 18 19  1  0  0  0  0
 19 24  2  0  0  0  0
 19 20  1  0  0  0  0
 20 21  2  0  0  0  0
 21 22  1  0  0  0  0
 21 50  1  0  0  0  0
 22 23  2  0  0  0  0
 22 25  1  0  0  0  0
 23 24  1  0  0  0  0
 23 51  1  0  0  0  0
 24 52  1  0  0  0  0
 25 26  1  0  0  0  0
 25 27  1  0  0  0  0
 25 28  1  0  0  0  0
M  CHG  1   2   1
M  END
$$$$
