ZINC12360535
 OpenBabel08292219463D

 20 21  0  0  0  0  0  0  0  0999 V2000
   -0.0164    1.3590    0.0095 C   0  0  0  0  0  0  0  0  0  0  0  0
    1.1669    2.0939    0.0022 C   0  0  0  0  0  0  0  0  0  0  0  0
    2.3808    1.4725   -0.0132 C   0  0  0  0  0  0  0  0  0  0  0  0
    2.4369    0.0750   -0.0213 C   0  0  0  0  0  0  0  0  0  0  0  0
    1.2319   -0.6747   -0.0133 C   0  0  0  0  0  0  0  0  0  0  0  0
    0.0021   -0.0041    0.0020 C   0  0  0  0  0  0  0  0  0  0  0  0
    1.3333   -2.0781   -0.0214 C   0  0  0  0  0  0  0  0  0  0  0  0
    2.5236   -2.6322   -0.0357 N   0  0  0  0  0  0  0  0  0  0  0  0
    3.6155   -1.9626   -0.0430 N   0  0  0  0  0  0  0  0  0  0  0  0
    3.6551   -0.6416   -0.0368 C   0  0  0  0  0  0  0  0  0  0  0  0
    4.8675    0.0280   -0.0457 N   0  0  0  0  0  0  0  0  0  0  0  0
    6.0372   -0.6774   -0.0606 N   0  0  0  0  0  0  0  0  0  0  0  0
   -0.9637    1.8775    0.0259 H   0  0  0  0  0  0  0  0  0  0  0  0
    1.1223    3.1729    0.0084 H   0  0  0  0  0  0  0  0  0  0  0  0
    3.2907    2.0544   -0.0195 H   0  0  0  0  0  0  0  0  0  0  0  0
   -0.9228   -0.5617    0.0082 H   0  0  0  0  0  0  0  0  0  0  0  0
    0.4442   -2.6912   -0.0155 H   0  0  0  0  0  0  0  0  0  0  0  0
    4.8860    0.9978   -0.0413 H   0  0  0  0  0  0  0  0  0  0  0  0
    6.8333   -0.0574   -0.0656 H   0  0  0  0  0  0  0  0  0  0  0  0
    6.0829   -1.3183    0.7173 H   0  0  0  0  0  0  0  0  0  0  0  0
  1  6  2  0  0  0  0
  1  2  1  0  0  0  0
  1 13  1  0  0  0  0
  2  3  2  0  0  0  0
  2 14  1  0  0  0  0
  3  4  1  0  0  0  0
  3 15  1  0  0  0  0
  4 10  2  0  0  0  0
  4  5  1  0  0  0  0
  5  6  1  0  0  0  0
  5  7  2  0  0  0  0
  6 16  1  0  0  0  0
  7  8  1  0  0  0  0
  7 17  1  0  0  0  0
  8  9  2  0  0  0  0
  9 10  1  0  0  0  0
 10 11  1  0  0  0  0
 11 12  1  0  0  0  0
 11 18  1  0  0  0  0
 12 19  1  0  0  0  0
 12 20  1  0  0  0  0
M  END
$$$$
