ZINC01542002
 OpenBabel08292219463D

 56 56  0  0  0  0  0  0  0  0999 V2000
   -0.8243    1.6329   -8.7265 C   0  0  0  0  0  0  0  0  0  0  0  0
   -0.0843    1.1261   -7.4870 C   0  0  0  0  0  0  0  0  0  0  0  0
   -0.8004    1.6195   -6.2282 C   0  0  0  0  0  0  0  0  0  0  0  0
   -0.0604    1.1126   -4.9886 C   0  0  0  0  0  0  0  0  0  0  0  0
   -0.7766    1.6061   -3.7298 C   0  0  0  0  0  0  0  0  0  0  0  0
   -0.0366    1.0992   -2.4903 C   0  0  0  0  0  0  0  0  0  0  0  0
   -0.7527    1.5927   -1.2315 C   0  0  0  0  0  0  0  0  0  0  0  0
   -0.0127    1.0858    0.0080 C   0  0  0  0  0  0  0  0  0  0  0  0
   -0.7181    1.5718    1.2479 C   0  0  0  0  0  0  0  0  0  0  0  0
   -0.3599    2.7788    1.8186 C   0  0  0  0  0  0  0  0  0  0  0  0
   -1.0099    3.2267    2.9534 C   0  0  0  0  0  0  0  0  0  0  0  0
   -2.0119    2.4632    3.5227 C   0  0  0  0  0  0  0  0  0  0  0  0
   -2.3665    1.2538    2.9550 C   0  0  0  0  0  0  0  0  0  0  0  0
   -1.7194    0.8079    1.8177 C   0  0  0  0  0  0  0  0  0  0  0  0
   -2.7180    2.9497    4.7620 C   0  0  0  0  0  0  0  0  0  0  0  0
   -1.9793    2.4425    6.0022 C   0  0  0  0  0  0  0  0  0  0  0  0
   -2.6962    2.9364    7.2604 C   0  0  0  0  0  0  0  0  0  0  0  0
   -1.9575    2.4292    8.5005 C   0  0  0  0  0  0  0  0  0  0  0  0
   -2.6902    2.7914    9.6727 O   0  0  0  0  0  0  0  0  0  0  0  0
   -2.7160    4.4663    7.2687 C   0  0  0  0  0  0  0  0  0  0  0  0
   -1.3750    4.9601    7.2596 O   0  0  0  0  0  0  0  0  0  0  0  0
   -1.8469    1.2556   -8.7188 H   0  0  0  0  0  0  0  0  0  0  0  0
   -0.8390    2.7228   -8.7205 H   0  0  0  0  0  0  0  0  0  0  0  0
   -0.3141    1.2814   -9.6233 H   0  0  0  0  0  0  0  0  0  0  0  0
    0.9383    1.5033   -7.4947 H   0  0  0  0  0  0  0  0  0  0  0  0
   -0.0695    0.0362   -7.4930 H   0  0  0  0  0  0  0  0  0  0  0  0
   -1.8230    1.2422   -6.2204 H   0  0  0  0  0  0  0  0  0  0  0  0
   -0.8152    2.7094   -6.2222 H   0  0  0  0  0  0  0  0  0  0  0  0
    0.9622    1.4899   -4.9964 H   0  0  0  0  0  0  0  0  0  0  0  0
   -0.0456    0.0228   -4.9946 H   0  0  0  0  0  0  0  0  0  0  0  0
   -1.7991    1.2288   -3.7221 H   0  0  0  0  0  0  0  0  0  0  0  0
   -0.7913    2.6960   -3.7239 H   0  0  0  0  0  0  0  0  0  0  0  0
    0.9860    1.4765   -2.4981 H   0  0  0  0  0  0  0  0  0  0  0  0
   -0.0218    0.0093   -2.4963 H   0  0  0  0  0  0  0  0  0  0  0  0
   -1.7753    1.2154   -1.2238 H   0  0  0  0  0  0  0  0  0  0  0  0
   -0.7675    2.6825   -1.2255 H   0  0  0  0  0  0  0  0  0  0  0  0
    0.0021   -0.0041    0.0020 H   0  0  0  0  0  0  0  0  0  0  0  0
    1.0099    1.4631    0.0003 H   0  0  0  0  0  0  0  0  0  0  0  0
    0.4255    3.3735    1.3760 H   0  0  0  0  0  0  0  0  0  0  0  0
   -0.7331    4.1718    3.3968 H   0  0  0  0  0  0  0  0  0  0  0  0
   -3.1493    0.6573    3.3998 H   0  0  0  0  0  0  0  0  0  0  0  0
   -1.9965   -0.1370    1.3742 H   0  0  0  0  0  0  0  0  0  0  0  0
   -2.7321    4.0396    4.7680 H   0  0  0  0  0  0  0  0  0  0  0  0
   -3.7408    2.5731    4.7689 H   0  0  0  0  0  0  0  0  0  0  0  0
   -1.9652    1.3526    5.9962 H   0  0  0  0  0  0  0  0  0  0  0  0
   -0.9565    2.8192    5.9953 H   0  0  0  0  0  0  0  0  0  0  0  0
   -1.8656    1.3442    8.4503 H   0  0  0  0  0  0  0  0  0  0  0  0
   -0.9643    2.8765    8.5402 H   0  0  0  0  0  0  0  0  0  0  0  0
   -2.2793    2.5013   10.4986 H   0  0  0  0  0  0  0  0  0  0  0  0
   -3.2422    4.8276    6.3852 H   0  0  0  0  0  0  0  0  0  0  0  0
   -3.2267    4.8181    8.1651 H   0  0  0  0  0  0  0  0  0  0  0  0
   -1.3112    5.9249    7.2642 H   0  0  0  0  0  0  0  0  0  0  0  0
   -4.0885    1.4199    7.2644 H   0  0  0  0  0  0  0  0  0  0  0  0
   -4.5889    2.7934    8.0575 H   0  0  0  0  0  0  0  0  0  0  0  0
   -4.0829    2.4384    7.2478 N   0  3  0  0  0  0  0  0  0  0  0  0
   -4.5500    2.7621    6.3926 H   0  0  0  0  0  0  0  0  0  0  0  0
  1  2  1  0  0  0  0
  1 22  1  0  0  0  0
  1 23  1  0  0  0  0
  1 24  1  0  0  0  0
  2  3  1  0  0  0  0
  2 25  1  0  0  0  0
  2 26  1  0  0  0  0
  3  4  1  0  0  0  0
  3 27  1  0  0  0  0
  3 28  1  0  0  0  0
  4  5  1  0  0  0  0
  4 29  1  0  0  0  0
  4 30  1  0  0  0  0
  5  6  1  0  0  0  0
  5 31  1  0  0  0  0
  5 32  1  0  0  0  0
  6  7  1  0  0  0  0
  6 33  1  0  0  0  0
  6 34  1  0  0  0  0
  7  8  1  0  0  0  0
  7 35  1  0  0  0  0
  7 36  1  0  0  0  0
  8  9  1  0  0  0  0
  8 37  1  0  0  0  0
  8 38  1  0  0  0  0
  9 14  2  0  0  0  0
  9 10  1  0  0  0  0
 10 11  2  0  0  0  0
 10 39  1  0  0  0  0
 11 12  1  0  0  0  0
 11 40  1  0  0  0  0
 12 13  2  0  0  0  0
 12 15  1  0  0  0  0
 13 14  1  0  0  0  0
 13 41  1  0  0  0  0
 14 42  1  0  0  0  0
 15 16  1  0  0  0  0
 15 43  1  0  0  0  0
 15 44  1  0  0  0  0
 16 17  1  0  0  0  0
 16 45  1  0  0  0  0
 16 46  1  0  0  0  0
 17 18  1  0  0  0  0
 17 20  1  0  0  0  0
 17 55  1  0  0  0  0
 18 19  1  0  0  0  0
 18 47  1  0  0  0  0
 18 48  1  0  0  0  0
 19 49  1  0  0  0  0
 20 21  1  0  0  0  0
 20 50  1  0  0  0  0
 20 51  1  0  0  0  0
 21 52  1  0  0  0  0
 53 55  1  0  0  0  0
 54 55  1  0  0  0  0
 55 56  1  0  0  0  0
M  CHG  1  55   1
M  END
$$$$
