ZINC03977737
 OpenBabel08292219463D

 33 33  0  0  1  0  0  0  0  0999 V2000
   -0.0178    1.4608    0.0101 C   0  0  0  0  0  0  0  0  0  0  0  0
    0.0021   -0.0041    0.0020 N   0  0  0  0  0  0  0  0  0  0  0  0
    0.0224   -0.6841    1.1654 C   0  0  0  0  0  0  0  0  0  0  0  0
    0.0242   -0.0824    2.2208 O   0  0  0  0  0  0  0  0  0  0  0  0
    0.0406   -2.0318    1.1580 N   0  0  0  0  0  0  0  0  0  0  0  0
    0.0627   -2.7710    2.4226 C   0  0  2  0  0  0  0  0  0  0  0  0
    0.6515   -2.2203    3.1563 H   0  0  0  0  0  0  0  0  0  0  0  0
    0.6867   -4.1517    2.1977 C   0  0  2  0  0  0  0  0  0  0  0  0
    0.1280   -4.6832    1.4273 H   0  0  0  0  0  0  0  0  0  0  0  0
    0.6334   -4.9436    3.5078 C   0  0  1  0  0  0  0  0  0  0  0  0
    1.2330   -4.4372    4.2642 H   0  0  0  0  0  0  0  0  0  0  0  0
   -0.8195   -5.0329    3.9822 C   0  0  2  0  0  0  0  0  0  0  0  0
   -1.4103   -5.5749    3.2438 H   0  0  0  0  0  0  0  0  0  0  0  0
   -1.3488   -3.7152    4.1420 O   0  0  0  0  0  0  0  0  0  0  0  0
   -1.3680   -2.9429    2.9398 C   0  0  2  0  0  0  0  0  0  0  0  0
   -1.8013   -1.9635    3.1425 H   0  0  0  0  0  0  0  0  0  0  0  0
   -2.1532   -3.6169    1.9543 O   0  0  0  0  0  0  0  0  0  0  0  0
   -0.8745   -5.7710    5.3213 C   0  0  0  0  0  0  0  0  0  0  0  0
   -2.2378   -5.9569    5.7070 O   0  0  0  0  0  0  0  0  0  0  0  0
    1.1483   -6.2590    3.2920 O   0  0  0  0  0  0  0  0  0  0  0  0
    2.0460   -4.0002    1.7837 O   0  0  0  0  0  0  0  0  0  0  0  0
    0.0002   -0.6430   -1.1186 N   0  0  0  0  0  0  0  0  0  0  0  0
   -0.0182   -0.0284   -2.1700 O   0  0  0  0  0  0  0  0  0  0  0  0
    1.0048    1.8381    0.0023 H   0  0  0  0  0  0  0  0  0  0  0  0
   -0.5450    1.8219   -0.8730 H   0  0  0  0  0  0  0  0  0  0  0  0
   -0.5280    1.8123    0.9069 H   0  0  0  0  0  0  0  0  0  0  0  0
    0.0392   -2.5122    0.3154 H   0  0  0  0  0  0  0  0  0  0  0  0
   -3.0732   -3.7603    2.2151 H   0  0  0  0  0  0  0  0  0  0  0  0
   -0.3896   -6.7421    5.2211 H   0  0  0  0  0  0  0  0  0  0  0  0
   -0.3586   -5.1840    6.0812 H   0  0  0  0  0  0  0  0  0  0  0  0
   -2.3487   -6.4195    6.5489 H   0  0  0  0  0  0  0  0  0  0  0  0
    1.1445   -6.8173    4.0816 H   0  0  0  0  0  0  0  0  0  0  0  0
    2.5037   -4.8367    1.6229 H   0  0  0  0  0  0  0  0  0  0  0  0
  1  2  1  0  0  0  0
  1 24  1  0  0  0  0
  1 25  1  0  0  0  0
  1 26  1  0  0  0  0
  2  3  1  0  0  0  0
  2 22  1  0  0  0  0
  3  4  2  0  0  0  0
  3  5  1  0  0  0  0
  5  6  1  0  0  0  0
  5 27  1  0  0  0  0
  6  7  1  1  0  0  0
  6 15  1  0  0  0  0
  6  8  1  0  0  0  0
  8  9  1  6  0  0  0
  8 10  1  0  0  0  0
  8 21  1  0  0  0  0
 10 11  1  1  0  0  0
 10 12  1  0  0  0  0
 10 20  1  0  0  0  0
 12 13  1  6  0  0  0
 12 14  1  0  0  0  0
 12 18  1  0  0  0  0
 14 15  1  0  0  0  0
 15 16  1  1  0  0  0
 15 17  1  0  0  0  0
 17 28  1  0  0  0  0
 18 19  1  0  0  0  0
 18 29  1  0  0  0  0
 18 30  1  0  0  0  0
 19 31  1  0  0  0  0
 20 32  1  0  0  0  0
 21 33  1  0  0  0  0
 22 23  2  0  0  0  0
M  END
$$$$
