ZINC00001175
 OpenBabel08292219463D

 34 36  0  0  0  0  0  0  0  0999 V2000
   -0.9048    1.3042   -0.3756 C   0  0  0  0  0  0  0  0  0  0  0  0
   -0.4883   -0.0907   -0.2112 N   0  0  0  0  0  0  0  0  0  0  0  0
   -1.4869   -1.0600   -0.2374 C   0  0  0  0  0  0  0  0  0  0  0  0
   -2.4957   -0.9005   -1.1903 C   0  0  0  0  0  0  0  0  0  0  0  0
   -3.5241   -1.8124   -1.2872 C   0  0  0  0  0  0  0  0  0  0  0  0
   -3.5626   -2.9011   -0.4332 C   0  0  0  0  0  0  0  0  0  0  0  0
   -2.5718   -3.0682    0.5111 C   0  0  0  0  0  0  0  0  0  0  0  0
   -1.5253   -2.1490    0.6180 C   0  0  0  0  0  0  0  0  0  0  0  0
   -0.5695   -2.3959    1.6002 N   0  0  0  0  0  0  0  0  0  0  0  0
    0.7446   -2.2419    1.4584 C   0  0  0  0  0  0  0  0  0  0  0  0
    1.4803   -2.5293    2.3789 O   0  0  0  0  0  0  0  0  0  0  0  0
    1.3357   -1.7176    0.1753 C   0  0  0  0  0  0  0  0  0  0  0  0
    0.8128   -0.3224   -0.0550 C   0  0  0  0  0  0  0  0  0  0  0  0
    1.5918    0.6065   -0.0949 O   0  0  0  0  0  0  0  0  0  0  0  0
   -1.0308   -2.8452    2.8434 C   0  0  0  0  0  0  0  0  0  0  0  0
   -1.0267   -4.2023    3.1382 C   0  0  0  0  0  0  0  0  0  0  0  0
   -1.4824   -4.6422    4.3655 C   0  0  0  0  0  0  0  0  0  0  0  0
   -1.9429   -3.7330    5.3002 C   0  0  0  0  0  0  0  0  0  0  0  0
   -1.9487   -2.3811    5.0095 C   0  0  0  0  0  0  0  0  0  0  0  0
   -1.4882   -1.9341    3.7866 C   0  0  0  0  0  0  0  0  0  0  0  0
   -4.8559   -4.0532   -0.5503 Cl  0  0  0  0  0  0  0  0  0  0  0  0
   -0.0286    1.9516   -0.3400 H   0  0  0  0  0  0  0  0  0  0  0  0
   -1.4056    1.4230   -1.3364 H   0  0  0  0  0  0  0  0  0  0  0  0
   -1.5901    1.5758    0.4274 H   0  0  0  0  0  0  0  0  0  0  0  0
   -2.4695   -0.0525   -1.8586 H   0  0  0  0  0  0  0  0  0  0  0  0
   -4.2987   -1.6779   -2.0277 H   0  0  0  0  0  0  0  0  0  0  0  0
   -2.6054   -3.9188    1.1757 H   0  0  0  0  0  0  0  0  0  0  0  0
    2.4227   -1.6946    0.2539 H   0  0  0  0  0  0  0  0  0  0  0  0
    1.0403   -2.3594   -0.6547 H   0  0  0  0  0  0  0  0  0  0  0  0
   -0.6678   -4.9129    2.4084 H   0  0  0  0  0  0  0  0  0  0  0  0
   -1.4794   -5.6974    4.5954 H   0  0  0  0  0  0  0  0  0  0  0  0
   -2.2990   -4.0796    6.2590 H   0  0  0  0  0  0  0  0  0  0  0  0
   -2.3097   -1.6735    5.7413 H   0  0  0  0  0  0  0  0  0  0  0  0
   -1.4885   -0.8778    3.5620 H   0  0  0  0  0  0  0  0  0  0  0  0
  1  2  1  0  0  0  0
  1 22  1  0  0  0  0
  1 23  1  0  0  0  0
  1 24  1  0  0  0  0
  2 13  1  0  0  0  0
  2  3  1  0  0  0  0
  3  8  2  0  0  0  0
  3  4  1  0  0  0  0
  4  5  2  0  0  0  0
  4 25  1  0  0  0  0
  5  6  1  0  0  0  0
  5 26  1  0  0  0  0
  6  7  2  0  0  0  0
  6 21  1  0  0  0  0
  7  8  1  0  0  0  0
  7 27  1  0  0  0  0
  8  9  1  0  0  0  0
  9 10  1  0  0  0  0
  9 15  1  0  0  0  0
 10 11  2  0  0  0  0
 10 12  1  0  0  0  0
 12 13  1  0  0  0  0
 12 28  1  0  0  0  0
 12 29  1  0  0  0  0
 13 14  2  0  0  0  0
 15 20  2  0  0  0  0
 15 16  1  0  0  0  0
 16 17  2  0  0  0  0
 16 30  1  0  0  0  0
 17 18  1  0  0  0  0
 17 31  1  0  0  0  0
 18 19  2  0  0  0  0
 18 32  1  0  0  0  0
 19 20  1  0  0  0  0
 19 33  1  0  0  0  0
 20 34  1  0  0  0  0
M  END
$$$$
