ZINC03830432
 OpenBabel08292219463D

 70 74  0  0  1  0  0  0  0  0999 V2000
   -4.9755   -3.5417    0.7038 C   0  0  0  0  0  0  0  0  0  0  0  0
   -4.4591   -3.9542    2.0837 C   0  0  0  0  0  0  0  0  0  0  0  0
   -2.9983   -3.8470    2.1105 N   0  0  0  0  0  0  0  0  0  0  0  0
   -2.1751   -4.9968    1.7348 C   0  0  0  0  0  0  0  0  0  0  0  0
   -0.9377   -4.5416    0.9670 C   0  0  0  0  0  0  0  0  0  0  0  0
   -0.2334   -3.4917    1.7036 N   0  0  0  0  0  0  0  0  0  0  0  0
   -0.9287   -2.5588    2.3843 C   0  0  0  0  0  0  0  0  0  0  0  0
   -0.3568   -1.6253    2.9069 O   0  0  0  0  0  0  0  0  0  0  0  0
   -2.4158   -2.6909    2.4866 C   0  0  0  0  0  0  0  0  0  0  0  0
   -3.0881   -1.7700    2.9020 O   0  0  0  0  0  0  0  0  0  0  0  0
    1.1140   -3.4576    1.7019 C   0  0  0  0  0  0  0  0  0  0  0  0
    1.6993   -2.5424    2.2469 O   0  0  0  0  0  0  0  0  0  0  0  0
    1.8121   -4.4383    1.0959 N   0  0  0  0  0  0  0  0  0  0  0  0
    3.2733   -4.4680    1.1983 C   0  0  2  0  0  0  0  0  0  0  0  0
    3.5760   -4.1079    2.1816 H   0  0  0  0  0  0  0  0  0  0  0  0
    3.8696   -3.5835    0.1339 C   0  0  0  0  0  0  0  0  0  0  0  0
    3.3255   -3.5704   -1.1371 C   0  0  0  0  0  0  0  0  0  0  0  0
    3.8668   -2.7562   -2.1131 C   0  0  0  0  0  0  0  0  0  0  0  0
    4.9643   -1.9597   -1.8201 C   0  0  0  0  0  0  0  0  0  0  0  0
    5.5118   -1.9789   -0.5456 C   0  0  0  0  0  0  0  0  0  0  0  0
    4.9633   -2.7906    0.4284 C   0  0  0  0  0  0  0  0  0  0  0  0
    5.5017   -1.1617   -2.7799 O   0  0  0  0  0  0  0  0  0  0  0  0
    3.7614   -5.8811    1.0088 C   0  0  0  0  0  0  0  0  0  0  0  0
    2.9671   -6.7753    0.8079 O   0  0  0  0  0  0  0  0  0  0  0  0
    5.0808   -6.1512    1.0625 N   0  0  0  0  0  0  0  0  0  0  0  0
    5.5553   -7.5249    0.8782 C   0  0  1  0  0  0  0  0  0  0  0  0
    4.8661   -8.1303    0.2896 H   0  0  0  0  0  0  0  0  0  0  0  0
    6.9932   -7.6029    0.3925 C   0  0  2  0  0  0  0  0  0  0  0  0
    7.1988   -8.3505   -0.3736 H   0  0  0  0  0  0  0  0  0  0  0  0
    7.2587   -8.0010    1.8074 N   0  0  0  0  0  0  0  0  0  0  0  0
    5.9799   -8.1883    2.1693 C   0  0  0  0  0  0  0  0  0  0  0  0
    5.4102   -8.6784    3.1214 O   0  0  0  0  0  0  0  0  0  0  0  0
    8.5103   -7.9734    2.4565 C   0  0  0  0  0  0  0  0  0  0  0  0
    9.4963   -7.2313    1.9803 C   0  0  0  0  0  0  0  0  0  0  0  0
    9.5149   -6.3893    0.7462 C   0  0  0  0  0  0  0  0  0  0  0  0
    7.8345   -5.9995    0.1667 S   0  0  0  0  0  0  0  0  0  0  0  0
   10.7681   -7.2357    2.7888 C   0  0  0  0  0  0  0  0  0  0  0  0
   11.8025   -8.6306    2.2785 S   0  0  0  0  0  0  0  0  0  0  0  0
   13.1800   -8.3990    3.3526 C   0  0  0  0  0  0  0  0  0  0  0  0
   13.3226   -7.4440    4.2459 N   0  0  0  0  0  0  0  0  0  0  0  0
   14.4441   -7.5659    4.8595 N   0  0  0  0  0  0  0  0  0  0  0  0
   15.0902   -8.5882    4.4132 N   0  0  0  0  0  0  0  0  0  0  0  0
   14.2884   -9.1738    3.4179 N   0  0  0  0  0  0  0  0  0  0  0  0
   14.5889  -10.3654    2.6205 C   0  0  0  0  0  0  0  0  0  0  0  0
    8.7213   -8.7771    3.6740 C   0  0  0  0  0  0  0  0  0  0  0  0
    7.7670   -9.1762    4.3115 O   0  0  0  0  0  0  0  0  0  0  0  0
   -4.6830   -2.5118    0.4993 H   0  0  0  0  0  0  0  0  0  0  0  0
   -4.5490   -4.1980   -0.0549 H   0  0  0  0  0  0  0  0  0  0  0  0
   -6.0624   -3.6215    0.6838 H   0  0  0  0  0  0  0  0  0  0  0  0
   -4.7516   -4.9841    2.2881 H   0  0  0  0  0  0  0  0  0  0  0  0
   -4.8856   -3.2980    2.8423 H   0  0  0  0  0  0  0  0  0  0  0  0
   -1.8645   -5.5263    2.6355 H   0  0  0  0  0  0  0  0  0  0  0  0
   -2.7608   -5.6687    1.1073 H   0  0  0  0  0  0  0  0  0  0  0  0
   -1.2405   -4.1565   -0.0067 H   0  0  0  0  0  0  0  0  0  0  0  0
   -0.2700   -5.3915    0.8256 H   0  0  0  0  0  0  0  0  0  0  0  0
    1.3472   -5.1244    0.5919 H   0  0  0  0  0  0  0  0  0  0  0  0
    2.4739   -4.1940   -1.3659 H   0  0  0  0  0  0  0  0  0  0  0  0
    3.4387   -2.7431   -3.1046 H   0  0  0  0  0  0  0  0  0  0  0  0
    6.3660   -1.3595   -0.3150 H   0  0  0  0  0  0  0  0  0  0  0  0
    5.3890   -2.8056    1.4209 H   0  0  0  0  0  0  0  0  0  0  0  0
    6.1979   -1.5861   -3.2998 H   0  0  0  0  0  0  0  0  0  0  0  0
    5.7161   -5.4360    1.2232 H   0  0  0  0  0  0  0  0  0  0  0  0
   10.0465   -6.9244   -0.0406 H   0  0  0  0  0  0  0  0  0  0  0  0
   10.0411   -5.4591    0.9605 H   0  0  0  0  0  0  0  0  0  0  0  0
   11.3075   -6.3033    2.6224 H   0  0  0  0  0  0  0  0  0  0  0  0
   10.5255   -7.3313    3.8471 H   0  0  0  0  0  0  0  0  0  0  0  0
   15.1171  -10.0718    1.7133 H   0  0  0  0  0  0  0  0  0  0  0  0
   15.2140  -11.0434    3.2016 H   0  0  0  0  0  0  0  0  0  0  0  0
   13.6592  -10.8677    2.3531 H   0  0  0  0  0  0  0  0  0  0  0  0
    9.9728   -9.0692    4.0802 O   0  0  0  0  0  1  0  0  0  0  0  0
  1  2  1  0  0  0  0
  1 47  1  0  0  0  0
  1 48  1  0  0  0  0
  1 49  1  0  0  0  0
  2  3  1  0  0  0  0
  2 50  1  0  0  0  0
  2 51  1  0  0  0  0
  3  9  1  0  0  0  0
  3  4  1  0  0  0  0
  4  5  1  0  0  0  0
  4 52  1  0  0  0  0
  4 53  1  0  0  0  0
  5  6  1  0  0  0  0
  5 54  1  0  0  0  0
  5 55  1  0  0  0  0
  6  7  1  0  0  0  0
  6 11  1  0  0  0  0
  7  8  2  0  0  0  0
  7  9  1  0  0  0  0
  9 10  2  0  0  0  0
 11 12  2  0  0  0  0
 11 13  1  0  0  0  0
 13 14  1  0  0  0  0
 13 56  1  0  0  0  0
 14 15  1  1  0  0  0
 14 16  1  0  0  0  0
 14 23  1  0  0  0  0
 16 21  2  0  0  0  0
 16 17  1  0  0  0  0
 17 18  2  0  0  0  0
 17 57  1  0  0  0  0
 18 19  1  0  0  0  0
 18 58  1  0  0  0  0
 19 20  2  0  0  0  0
 19 22  1  0  0  0  0
 20 21  1  0  0  0  0
 20 59  1  0  0  0  0
 21 60  1  0  0  0  0
 22 61  1  0  0  0  0
 23 24  2  0  0  0  0
 23 25  1  0  0  0  0
 25 26  1  0  0  0  0
 25 62  1  0  0  0  0
 26 27  1  6  0  0  0
 26 31  1  0  0  0  0
 26 28  1  0  0  0  0
 28 29  1  6  0  0  0
 28 36  1  0  0  0  0
 28 30  1  0  0  0  0
 30 31  1  0  0  0  0
 30 33  1  0  0  0  0
 31 32  2  0  0  0  0
 33 34  2  0  0  0  0
 33 45  1  0  0  0  0
 34 35  1  0  0  0  0
 34 37  1  0  0  0  0
 35 36  1  0  0  0  0
 35 63  1  0  0  0  0
 35 64  1  0  0  0  0
 37 38  1  0  0  0  0
 37 65  1  0  0  0  0
 37 66  1  0  0  0  0
 38 39  1  0  0  0  0
 39 43  1  0  0  0  0
 39 40  2  0  0  0  0
 40 41  1  0  0  0  0
 41 42  2  0  0  0  0
 42 43  1  0  0  0  0
 43 44  1  0  0  0  0
 44 67  1  0  0  0  0
 44 68  1  0  0  0  0
 44 69  1  0  0  0  0
 45 46  2  0  0  0  0
 45 70  1  0  0  0  0
M  END
$$$$
