ZINC36378574
 OpenBabel08292219463D

 59 61  0  0  1  0  0  0  0  0999 V2000
    0.0948    1.8695    4.0212 C   0  0  0  0  0  0  0  0  0  0  0  0
    0.1081    0.3627    4.2860 C   0  0  0  0  0  0  0  0  0  0  0  0
    0.7534   -0.3061    3.2005 O   0  0  0  0  0  0  0  0  0  0  0  0
    0.8489   -1.6457    3.2785 C   0  0  0  0  0  0  0  0  0  0  0  0
    0.3971   -2.2316    4.2414 O   0  0  0  0  0  0  0  0  0  0  0  0
    1.4450   -2.3363    2.2898 O   0  0  0  0  0  0  0  0  0  0  0  0
    1.6236   -3.7392    2.4947 C   0  0  1  0  0  0  0  0  0  0  0  0
    2.1625   -4.1644    1.6479 H   0  0  0  0  0  0  0  0  0  0  0  0
    2.4257   -3.9693    3.7771 C   0  0  0  0  0  0  0  0  0  0  0  0
    0.3467   -4.3699    2.6119 O   0  0  0  0  0  0  0  0  0  0  0  0
   -0.3873   -4.4726    1.4928 C   0  0  0  0  0  0  0  0  0  0  0  0
   -0.0032   -3.9583    0.4691 O   0  0  0  0  0  0  0  0  0  0  0  0
   -1.6903   -5.2294    1.5131 C   0  0  1  0  0  0  0  0  0  0  0  0
   -1.5682   -6.1303    2.1144 H   0  0  0  0  0  0  0  0  0  0  0  0
   -2.7855   -4.3351    2.1570 C   0  0  0  0  0  0  0  0  0  0  0  0
   -4.2735   -5.1459    1.4171 S   0  0  0  0  0  0  0  0  0  0  0  0
   -3.4901   -5.6602   -0.1639 C   0  0  1  0  0  0  0  0  0  0  0  0
   -3.8211   -5.1082   -1.0436 H   0  0  0  0  0  0  0  0  0  0  0  0
   -2.0414   -5.6134    0.1426 N   0  0  0  0  0  0  0  0  0  0  0  0
   -1.8443   -6.9298   -0.1785 C   0  0  0  0  0  0  0  0  0  0  0  0
   -0.8615   -7.6298   -0.3009 O   0  0  0  0  0  0  0  0  0  0  0  0
   -3.3590   -7.1751   -0.3332 C   0  0  1  0  0  0  0  0  0  0  0  0
   -3.6511   -7.5332   -1.3204 H   0  0  0  0  0  0  0  0  0  0  0  0
   -3.9627   -7.9449    0.7573 N   0  0  0  0  0  0  0  0  0  0  0  0
   -4.3782   -9.2085    0.5405 C   0  0  0  0  0  0  0  0  0  0  0  0
   -4.2523   -9.7084   -0.5573 O   0  0  0  0  0  0  0  0  0  0  0  0
   -4.9992  -10.0004    1.6623 C   0  0  1  0  0  0  0  0  0  0  0  0
   -4.4592   -9.8034    2.5884 H   0  0  0  0  0  0  0  0  0  0  0  0
   -6.4412   -9.5943    1.8255 C   0  0  0  0  0  0  0  0  0  0  0  0
   -7.4049  -10.1116    0.9801 C   0  0  0  0  0  0  0  0  0  0  0  0
   -8.7277   -9.7391    1.1298 C   0  0  0  0  0  0  0  0  0  0  0  0
   -9.0868   -8.8496    2.1252 C   0  0  0  0  0  0  0  0  0  0  0  0
   -8.1233   -8.3330    2.9711 C   0  0  0  0  0  0  0  0  0  0  0  0
   -6.8011   -8.7088    2.8241 C   0  0  0  0  0  0  0  0  0  0  0  0
   -4.9266  -11.4337    1.3485 N   0  0  0  0  0  0  0  0  0  0  0  0
   -2.7817   -4.4517    3.6826 C   0  0  0  0  0  0  0  0  0  0  0  0
   -2.6575   -2.8779    1.7084 C   0  0  0  0  0  0  0  0  0  0  0  0
   -0.4466    2.0712    3.0969 H   0  0  0  0  0  0  0  0  0  0  0  0
   -0.3974    2.3796    4.8492 H   0  0  0  0  0  0  0  0  0  0  0  0
    1.1188    2.2313    3.9288 H   0  0  0  0  0  0  0  0  0  0  0  0
    0.6494    0.1610    5.2104 H   0  0  0  0  0  0  0  0  0  0  0  0
   -0.9160    0.0009    4.3784 H   0  0  0  0  0  0  0  0  0  0  0  0
    1.8869   -3.5442    4.6239 H   0  0  0  0  0  0  0  0  0  0  0  0
    2.5620   -5.0394    3.9334 H   0  0  0  0  0  0  0  0  0  0  0  0
    3.3997   -3.4883    3.6877 H   0  0  0  0  0  0  0  0  0  0  0  0
   -4.0634   -7.5451    1.6353 H   0  0  0  0  0  0  0  0  0  0  0  0
   -7.1243  -10.8065    0.2025 H   0  0  0  0  0  0  0  0  0  0  0  0
   -9.4805  -10.1427    0.4689 H   0  0  0  0  0  0  0  0  0  0  0  0
  -10.1202   -8.5580    2.2417 H   0  0  0  0  0  0  0  0  0  0  0  0
   -8.4038   -7.6378    3.7485 H   0  0  0  0  0  0  0  0  0  0  0  0
   -6.0489   -8.3081    3.4874 H   0  0  0  0  0  0  0  0  0  0  0  0
   -5.2782  -11.9896    2.1136 H   0  0  0  0  0  0  0  0  0  0  0  0
   -5.4202  -11.6421    0.4935 H   0  0  0  0  0  0  0  0  0  0  0  0
   -1.8113   -4.1393    4.0684 H   0  0  0  0  0  0  0  0  0  0  0  0
   -3.5607   -3.8124    4.0978 H   0  0  0  0  0  0  0  0  0  0  0  0
   -2.9702   -5.4865    3.9683 H   0  0  0  0  0  0  0  0  0  0  0  0
   -2.7599   -2.8211    0.6247 H   0  0  0  0  0  0  0  0  0  0  0  0
   -3.4400   -2.2828    2.1790 H   0  0  0  0  0  0  0  0  0  0  0  0
   -1.6813   -2.4919    2.0018 H   0  0  0  0  0  0  0  0  0  0  0  0
  1  2  1  0  0  0  0
  1 38  1  0  0  0  0
  1 39  1  0  0  0  0
  1 40  1  0  0  0  0
  2  3  1  0  0  0  0
  2 41  1  0  0  0  0
  2 42  1  0  0  0  0
  3  4  1  0  0  0  0
  4  5  2  0  0  0  0
  4  6  1  0  0  0  0
  6  7  1  0  0  0  0
  7  8  1  6  0  0  0
  7  9  1  0  0  0  0
  7 10  1  0  0  0  0
  9 43  1  0  0  0  0
  9 44  1  0  0  0  0
  9 45  1  0  0  0  0
 10 11  1  0  0  0  0
 11 12  2  0  0  0  0
 11 13  1  0  0  0  0
 13 14  1  1  0  0  0
 13 19  1  0  0  0  0
 13 15  1  0  0  0  0
 15 16  1  0  0  0  0
 15 36  1  0  0  0  0
 15 37  1  0  0  0  0
 16 17  1  0  0  0  0
 17 18  1  6  0  0  0
 17 22  1  0  0  0  0
 17 19  1  0  0  0  0
 19 20  1  0  0  0  0
 20 21  2  0  0  0  0
 20 22  1  0  0  0  0
 22 23  1  6  0  0  0
 22 24  1  0  0  0  0
 24 25  1  0  0  0  0
 24 46  1  0  0  0  0
 25 26  2  0  0  0  0
 25 27  1  0  0  0  0
 27 28  1  1  0  0  0
 27 29  1  0  0  0  0
 27 35  1  0  0  0  0
 29 34  2  0  0  0  0
 29 30  1  0  0  0  0
 30 31  2  0  0  0  0
 30 47  1  0  0  0  0
 31 32  1  0  0  0  0
 31 48  1  0  0  0  0
 32 33  2  0  0  0  0
 32 49  1  0  0  0  0
 33 34  1  0  0  0  0
 33 50  1  0  0  0  0
 34 51  1  0  0  0  0
 35 52  1  0  0  0  0
 35 53  1  0  0  0  0
 36 54  1  0  0  0  0
 36 55  1  0  0  0  0
 36 56  1  0  0  0  0
 37 57  1  0  0  0  0
 37 58  1  0  0  0  0
 37 59  1  0  0  0  0
M  END
$$$$
