ZINC33956089
 OpenBabel08292219463D

 73 75  0  0  1  0  0  0  0  0999 V2000
   -0.0179    1.4678    0.0101 C   0  0  0  0  0  0  0  0  0  0  0  0
    0.0021   -0.0041    0.0020 C   0  0  0  0  0  0  0  0  0  0  0  0
    0.0180   -1.1779   -0.0044 C   0  0  0  0  0  0  0  0  0  0  0  0
    0.0380   -2.6498   -0.0125 C   0  0  0  0  0  0  0  0  0  0  0  0
   -1.3974   -3.1794   -0.0017 C   0  0  1  0  0  0  0  0  0  0  0  0
   -1.9342   -2.7566    0.8476 H   0  0  0  0  0  0  0  0  0  0  0  0
   -2.0993   -2.7769   -1.3002 C   0  0  0  0  0  0  0  0  0  0  0  0
   -1.3774   -4.7047    0.1157 C   0  0  2  0  0  0  0  0  0  0  0  0
   -0.8406   -5.1274   -0.7336 H   0  0  0  0  0  0  0  0  0  0  0  0
   -2.7912   -5.2263    0.1264 C   0  0  0  0  0  0  0  0  0  0  0  0
   -3.1894   -6.0586   -0.8037 C   0  0  0  0  0  0  0  0  0  0  0  0
   -4.6032   -6.5802   -0.7930 C   0  0  2  0  0  0  0  0  0  0  0  0
   -5.1517   -6.1767    0.0581 H   0  0  0  0  0  0  0  0  0  0  0  0
   -4.6102   -8.1393   -0.7582 C   0  0  1  0  0  0  0  0  0  0  0  0
   -5.2560   -8.4945    0.0447 H   0  0  0  0  0  0  0  0  0  0  0  0
   -5.1726   -8.5941   -2.1436 C   0  0  0  0  0  0  0  0  0  0  0  0
   -4.8267   -7.4094   -3.0253 C   0  0  2  0  0  0  0  0  0  0  0  0
   -3.7544   -7.3622   -3.2148 H   0  0  0  0  0  0  0  0  0  0  0  0
   -5.2987   -6.2386   -2.0759 C   0  0  2  0  0  0  0  0  0  0  0  0
   -6.3731   -6.3466   -1.9267 H   0  0  0  0  0  0  0  0  0  0  0  0
   -5.0740   -5.0331   -2.9376 C   0  0  0  0  0  0  0  0  0  0  0  0
   -5.3929   -5.5182   -4.3593 C   0  0  0  0  0  0  0  0  0  0  0  0
   -5.4523   -4.7841   -5.4426 C   0  0  0  0  0  0  0  0  0  0  0  0
   -5.1924   -3.3018   -5.3635 C   0  0  0  0  0  0  0  0  0  0  0  0
   -4.0802   -2.9259   -6.3446 C   0  0  0  0  0  0  0  0  0  0  0  0
   -3.8163   -1.4210   -6.2643 C   0  0  0  0  0  0  0  0  0  0  0  0
   -2.7208   -1.0508   -7.2306 C   0  0  0  0  0  0  0  0  0  0  0  0
   -2.2040   -1.9032   -7.9135 O   0  0  0  0  0  0  0  0  0  0  0  0
   -2.3190    0.2259   -7.3327 O   0  0  0  0  0  0  0  0  0  0  0  0
   -1.2761    0.5049   -8.2689 C   0  0  0  0  0  0  0  0  0  0  0  0
   -0.9606    1.9783   -8.2450 C   0  0  0  0  0  0  0  0  0  0  0  0
   -1.5688    2.7166   -7.4999 O   0  0  0  0  0  0  0  0  0  0  0  0
    0.0858    2.5212   -9.1261 C   0  0  0  0  0  0  0  0  0  0  0  0
    0.7855    1.6738   -9.9911 C   0  0  0  0  0  0  0  0  0  0  0  0
    1.7642    2.1902  -10.8139 C   0  0  0  0  0  0  0  0  0  0  0  0
    2.0546    3.5431  -10.7852 C   0  0  0  0  0  0  0  0  0  0  0  0
    1.3669    4.3880   -9.9317 C   0  0  0  0  0  0  0  0  0  0  0  0
    0.3815    3.8879   -9.1069 C   0  0  0  0  0  0  0  0  0  0  0  0
   -5.6164   -7.0530   -4.2700 C   0  0  0  0  0  0  0  0  0  0  0  0
   -3.2819   -8.6342   -0.5773 O   0  0  0  0  0  0  0  0  0  0  0  0
   -0.7218   -5.0806    1.3285 O   0  0  0  0  0  0  0  0  0  0  0  0
    1.0047    1.8451    0.0024 H   0  0  0  0  0  0  0  0  0  0  0  0
   -0.5451    1.8289   -0.8729 H   0  0  0  0  0  0  0  0  0  0  0  0
   -0.5281    1.8193    0.9069 H   0  0  0  0  0  0  0  0  0  0  0  0
    0.5481   -3.0013   -0.9093 H   0  0  0  0  0  0  0  0  0  0  0  0
    0.5651   -3.0109    0.8705 H   0  0  0  0  0  0  0  0  0  0  0  0
   -1.5625   -3.1997   -2.1495 H   0  0  0  0  0  0  0  0  0  0  0  0
   -3.1219   -3.1542   -1.2925 H   0  0  0  0  0  0  0  0  0  0  0  0
   -2.1136   -1.6902   -1.3838 H   0  0  0  0  0  0  0  0  0  0  0  0
   -3.4761   -4.9141    0.9008 H   0  0  0  0  0  0  0  0  0  0  0  0
   -2.5044   -6.3708   -1.5781 H   0  0  0  0  0  0  0  0  0  0  0  0
   -4.6709   -9.4975   -2.4903 H   0  0  0  0  0  0  0  0  0  0  0  0
   -6.2514   -8.7429   -2.0964 H   0  0  0  0  0  0  0  0  0  0  0  0
   -5.7492   -4.2273   -2.6494 H   0  0  0  0  0  0  0  0  0  0  0  0
   -4.0368   -4.7047   -2.8706 H   0  0  0  0  0  0  0  0  0  0  0  0
   -5.6875   -5.2412   -6.3925 H   0  0  0  0  0  0  0  0  0  0  0  0
   -6.1022   -2.7592   -5.6205 H   0  0  0  0  0  0  0  0  0  0  0  0
   -4.8871   -3.0400   -4.3505 H   0  0  0  0  0  0  0  0  0  0  0  0
   -3.1704   -3.4685   -6.0877 H   0  0  0  0  0  0  0  0  0  0  0  0
   -4.3855   -3.1877   -7.3577 H   0  0  0  0  0  0  0  0  0  0  0  0
   -4.7261   -0.8784   -6.5213 H   0  0  0  0  0  0  0  0  0  0  0  0
   -3.5110   -1.1592   -5.2512 H   0  0  0  0  0  0  0  0  0  0  0  0
   -0.3849   -0.0619   -7.9996 H   0  0  0  0  0  0  0  0  0  0  0  0
   -1.6000    0.2189   -9.2696 H   0  0  0  0  0  0  0  0  0  0  0  0
    0.5602    0.6179  -10.0144 H   0  0  0  0  0  0  0  0  0  0  0  0
    2.3057    1.5371  -11.4822 H   0  0  0  0  0  0  0  0  0  0  0  0
    2.8223    3.9415  -11.4321 H   0  0  0  0  0  0  0  0  0  0  0  0
    1.5995    5.4425   -9.9148 H   0  0  0  0  0  0  0  0  0  0  0  0
   -0.1574    4.5492   -8.4446 H   0  0  0  0  0  0  0  0  0  0  0  0
   -5.2150   -7.5653   -5.1444 H   0  0  0  0  0  0  0  0  0  0  0  0
   -6.6741   -7.2801   -4.1371 H   0  0  0  0  0  0  0  0  0  0  0  0
   -3.2223   -9.5990   -0.5476 H   0  0  0  0  0  0  0  0  0  0  0  0
   -1.1461   -4.7385    2.1273 H   0  0  0  0  0  0  0  0  0  0  0  0
  1  2  1  0  0  0  0
  1 42  1  0  0  0  0
  1 43  1  0  0  0  0
  1 44  1  0  0  0  0
  2  3  3  0  0  0  0
  3  4  1  0  0  0  0
  4  5  1  0  0  0  0
  4 45  1  0  0  0  0
  4 46  1  0  0  0  0
  5  6  1  1  0  0  0
  5  7  1  0  0  0  0
  5  8  1  0  0  0  0
  7 47  1  0  0  0  0
  7 48  1  0  0  0  0
  7 49  1  0  0  0  0
  8  9  1  6  0  0  0
  8 10  1  0  0  0  0
  8 41  1  0  0  0  0
 10 11  2  0  0  0  0
 10 50  1  0  0  0  0
 11 12  1  0  0  0  0
 11 51  1  0  0  0  0
 12 13  1  1  0  0  0
 12 19  1  0  0  0  0
 12 14  1  0  0  0  0
 14 15  1  1  0  0  0
 14 16  1  0  0  0  0
 14 40  1  0  0  0  0
 16 17  1  0  0  0  0
 16 52  1  0  0  0  0
 16 53  1  0  0  0  0
 17 18  1  6  0  0  0
 17 39  1  0  0  0  0
 17 19  1  0  0  0  0
 19 20  1  1  0  0  0
 19 21  1  0  0  0  0
 21 22  1  0  0  0  0
 21 54  1  0  0  0  0
 21 55  1  0  0  0  0
 22 23  2  0  0  0  0
 22 39  1  0  0  0  0
 23 24  1  0  0  0  0
 23 56  1  0  0  0  0
 24 25  1  0  0  0  0
 24 57  1  0  0  0  0
 24 58  1  0  0  0  0
 25 26  1  0  0  0  0
 25 59  1  0  0  0  0
 25 60  1  0  0  0  0
 26 27  1  0  0  0  0
 26 61  1  0  0  0  0
 26 62  1  0  0  0  0
 27 28  2  0  0  0  0
 27 29  1  0  0  0  0
 29 30  1  0  0  0  0
 30 31  1  0  0  0  0
 30 63  1  0  0  0  0
 30 64  1  0  0  0  0
 31 32  2  0  0  0  0
 31 33  1  0  0  0  0
 33 38  2  0  0  0  0
 33 34  1  0  0  0  0
 34 35  2  0  0  0  0
 34 65  1  0  0  0  0
 35 36  1  0  0  0  0
 35 66  1  0  0  0  0
 36 37  2  0  0  0  0
 36 67  1  0  0  0  0
 37 38  1  0  0  0  0
 37 68  1  0  0  0  0
 38 69  1  0  0  0  0
 39 70  1  0  0  0  0
 39 71  1  0  0  0  0
 40 72  1  0  0  0  0
 41 73  1  0  0  0  0
M  END
$$$$
