ZINC03876173
 OpenBabel08292219463D

 36 38  0  0  1  0  0  0  0  0999 V2000
   -0.4108    1.4433   -0.1609 C   0  0  0  0  0  0  0  0  0  0  0  0
   -0.2348   -0.0763   -0.1364 C   0  0  0  0  0  0  0  0  0  0  0  0
    0.7182   -0.4975   -1.2568 C   0  0  1  0  0  0  0  0  0  0  0  0
    0.3748   -0.0784   -2.2026 H   0  0  0  0  0  0  0  0  0  0  0  0
    2.1041    0.0118   -0.9554 C   0  0  0  0  0  0  0  0  0  0  0  0
    2.7645   -0.4132    0.1823 C   0  0  0  0  0  0  0  0  0  0  0  0
    4.0358    0.0540    0.4587 C   0  0  0  0  0  0  0  0  0  0  0  0
    4.6469    0.9459   -0.4027 C   0  0  0  0  0  0  0  0  0  0  0  0
    3.9869    1.3702   -1.5408 C   0  0  0  0  0  0  0  0  0  0  0  0
    2.7173    0.8997   -1.8195 C   0  0  0  0  0  0  0  0  0  0  0  0
    0.7457   -2.0011   -1.3541 C   0  0  0  0  0  0  0  0  0  0  0  0
    0.2924   -2.7650   -0.3142 C   0  0  0  0  0  0  0  0  0  0  0  0
    0.3409   -4.2282   -0.4594 C   0  0  0  0  0  0  0  0  0  0  0  0
   -0.1060   -5.0687    0.5624 C   0  0  0  0  0  0  0  0  0  0  0  0
   -0.0474   -6.4343    0.3948 C   0  0  0  0  0  0  0  0  0  0  0  0
    0.4520   -6.9747   -0.7812 C   0  0  0  0  0  0  0  0  0  0  0  0
    0.8969   -6.1560   -1.7977 C   0  0  0  0  0  0  0  0  0  0  0  0
    0.8462   -4.7760   -1.6493 C   0  0  0  0  0  0  0  0  0  0  0  0
    1.2764   -3.9596   -2.6354 O   0  0  0  0  0  0  0  0  0  0  0  0
    1.2313   -2.6233   -2.5144 C   0  0  0  0  0  0  0  0  0  0  0  0
    1.6276   -1.9313   -3.4359 O   0  0  0  0  0  0  0  0  0  0  0  0
   -0.1857   -2.1924    0.8140 O   0  5  0  0  0  0  0  0  0  0  0  0
    0.5567    1.9236   -0.0146 H   0  0  0  0  0  0  0  0  0  0  0  0
   -0.8248    1.7457   -1.1228 H   0  0  0  0  0  0  0  0  0  0  0  0
   -1.0897    1.7434    0.6373 H   0  0  0  0  0  0  0  0  0  0  0  0
    0.1792   -0.3787    0.8256 H   0  0  0  0  0  0  0  0  0  0  0  0
   -1.2023   -0.5565   -0.2826 H   0  0  0  0  0  0  0  0  0  0  0  0
    2.2870   -1.1099    0.8553 H   0  0  0  0  0  0  0  0  0  0  0  0
    4.5514   -0.2775    1.3479 H   0  0  0  0  0  0  0  0  0  0  0  0
    5.6399    1.3114   -0.1863 H   0  0  0  0  0  0  0  0  0  0  0  0
    4.4643    2.0672   -2.2136 H   0  0  0  0  0  0  0  0  0  0  0  0
    2.2032    1.2283   -2.7106 H   0  0  0  0  0  0  0  0  0  0  0  0
   -0.4949   -4.6501    1.4789 H   0  0  0  0  0  0  0  0  0  0  0  0
   -0.3917   -7.0877    1.1828 H   0  0  0  0  0  0  0  0  0  0  0  0
    0.4932   -8.0472   -0.9016 H   0  0  0  0  0  0  0  0  0  0  0  0
    1.2845   -6.5876   -2.7088 H   0  0  0  0  0  0  0  0  0  0  0  0
  1  2  1  0  0  0  0
  1 23  1  0  0  0  0
  1 24  1  0  0  0  0
  1 25  1  0  0  0  0
  2  3  1  0  0  0  0
  2 26  1  0  0  0  0
  2 27  1  0  0  0  0
  3  4  1  6  0  0  0
  3  5  1  0  0  0  0
  3 11  1  0  0  0  0
  5 10  2  0  0  0  0
  5  6  1  0  0  0  0
  6  7  2  0  0  0  0
  6 28  1  0  0  0  0
  7  8  1  0  0  0  0
  7 29  1  0  0  0  0
  8  9  2  0  0  0  0
  8 30  1  0  0  0  0
  9 10  1  0  0  0  0
  9 31  1  0  0  0  0
 10 32  1  0  0  0  0
 11 20  1  0  0  0  0
 11 12  2  0  0  0  0
 12 13  1  0  0  0  0
 12 22  1  0  0  0  0
 13 18  2  0  0  0  0
 13 14  1  0  0  0  0
 14 15  2  0  0  0  0
 14 33  1  0  0  0  0
 15 16  1  0  0  0  0
 15 34  1  0  0  0  0
 16 17  2  0  0  0  0
 16 35  1  0  0  0  0
 17 18  1  0  0  0  0
 17 36  1  0  0  0  0
 18 19  1  0  0  0  0
 19 20  1  0  0  0  0
 20 21  2  0  0  0  0
M  CHG  1  22  -1
M  END
$$$$
