ZINC00006427
 OpenBabel08292219463D

 33 35  0  0  0  0  0  0  0  0999 V2000
    0.5645    1.4220    0.1928 C   0  0  0  0  0  0  0  0  0  0  0  0
    0.3235   -0.0204    0.1049 N   0  0  0  0  0  0  0  0  0  0  0  0
   -0.9927   -0.4531    0.1626 C   0  0  0  0  0  0  0  0  0  0  0  0
   -1.9457    0.2992   -0.5272 C   0  0  0  0  0  0  0  0  0  0  0  0
   -3.2733   -0.0670   -0.5149 C   0  0  0  0  0  0  0  0  0  0  0  0
   -3.6777   -1.1917    0.1872 C   0  0  0  0  0  0  0  0  0  0  0  0
   -2.7519   -1.9453    0.8726 C   0  0  0  0  0  0  0  0  0  0  0  0
   -1.3954   -1.5853    0.8674 C   0  0  0  0  0  0  0  0  0  0  0  0
   -0.4607   -2.4388    1.6175 C   0  0  0  0  0  0  0  0  0  0  0  0
    0.7150   -2.7715    1.2168 N   0  0  0  0  0  0  0  0  0  0  0  0
    1.2537   -2.3110   -0.0624 C   0  0  0  0  0  0  0  0  0  0  0  0
    1.3847   -0.8126   -0.0296 C   0  0  0  0  0  0  0  0  0  0  0  0
    2.4861   -0.3137   -0.1239 O   0  0  0  0  0  0  0  0  0  0  0  0
   -0.9076   -2.9538    2.9327 C   0  0  0  0  0  0  0  0  0  0  0  0
   -0.3330   -4.1079    3.4647 C   0  0  0  0  0  0  0  0  0  0  0  0
   -0.7535   -4.5827    4.6901 C   0  0  0  0  0  0  0  0  0  0  0  0
   -1.7429   -3.9163    5.3909 C   0  0  0  0  0  0  0  0  0  0  0  0
   -2.3166   -2.7710    4.8684 C   0  0  0  0  0  0  0  0  0  0  0  0
   -1.9005   -2.2832    3.6466 C   0  0  0  0  0  0  0  0  0  0  0  0
   -5.3522   -1.6496    0.2025 Cl  0  0  0  0  0  0  0  0  0  0  0  0
    1.6353    1.6160    0.1296 H   0  0  0  0  0  0  0  0  0  0  0  0
    0.0549    1.9262   -0.6283 H   0  0  0  0  0  0  0  0  0  0  0  0
    0.1827    1.7970    1.1424 H   0  0  0  0  0  0  0  0  0  0  0  0
   -1.6385    1.1774   -1.0758 H   0  0  0  0  0  0  0  0  0  0  0  0
   -4.0004    0.5233   -1.0528 H   0  0  0  0  0  0  0  0  0  0  0  0
   -3.0719   -2.8206    1.4183 H   0  0  0  0  0  0  0  0  0  0  0  0
    2.2331   -2.7595   -0.2287 H   0  0  0  0  0  0  0  0  0  0  0  0
    0.5774   -2.5976   -0.8678 H   0  0  0  0  0  0  0  0  0  0  0  0
    0.4392   -4.6292    2.9184 H   0  0  0  0  0  0  0  0  0  0  0  0
   -0.3096   -5.4765    5.1029 H   0  0  0  0  0  0  0  0  0  0  0  0
   -2.0690   -4.2920    6.3495 H   0  0  0  0  0  0  0  0  0  0  0  0
   -3.0889   -2.2553    5.4199 H   0  0  0  0  0  0  0  0  0  0  0  0
   -2.3460   -1.3865    3.2417 H   0  0  0  0  0  0  0  0  0  0  0  0
  1  2  1  0  0  0  0
  1 21  1  0  0  0  0
  1 22  1  0  0  0  0
  1 23  1  0  0  0  0
  2 12  1  0  0  0  0
  2  3  1  0  0  0  0
  3  8  2  0  0  0  0
  3  4  1  0  0  0  0
  4  5  2  0  0  0  0
  4 24  1  0  0  0  0
  5  6  1  0  0  0  0
  5 25  1  0  0  0  0
  6  7  2  0  0  0  0
  6 20  1  0  0  0  0
  7  8  1  0  0  0  0
  7 26  1  0  0  0  0
  8  9  1  0  0  0  0
  9 10  2  0  0  0  0
  9 14  1  0  0  0  0
 10 11  1  0  0  0  0
 11 12  1  0  0  0  0
 11 27  1  0  0  0  0
 11 28  1  0  0  0  0
 12 13  2  0  0  0  0
 14 19  2  0  0  0  0
 14 15  1  0  0  0  0
 15 16  2  0  0  0  0
 15 29  1  0  0  0  0
 16 17  1  0  0  0  0
 16 30  1  0  0  0  0
 17 18  2  0  0  0  0
 17 31  1  0  0  0  0
 18 19  1  0  0  0  0
 18 32  1  0  0  0  0
 19 33  1  0  0  0  0
M  END
$$$$
