ZINC03830713
 OpenBabel08292219463D

 56 56  0  0  1  0  0  0  0  0999 V2000
    1.1435    1.5780    0.1841 C   0  0  0  0  0  0  0  0  0  0  0  0
    1.1566    0.0481    0.1856 C   0  0  0  0  0  0  0  0  0  0  0  0
    1.6249   -0.4592   -1.1798 C   0  0  0  0  0  0  0  0  0  0  0  0
    1.6381   -1.9892   -1.1783 C   0  0  0  0  0  0  0  0  0  0  0  0
    2.1064   -2.4965   -2.5437 C   0  0  0  0  0  0  0  0  0  0  0  0
    2.1195   -4.0264   -2.5422 C   0  0  1  0  0  0  0  0  0  0  0  0
    1.1360   -4.3979   -2.2545 H   0  0  0  0  0  0  0  0  0  0  0  0
    2.4618   -4.5271   -3.9218 C   0  0  0  0  0  0  0  0  0  0  0  0
    3.4668   -5.3505   -4.0891 C   0  0  0  0  0  0  0  0  0  0  0  0
    3.8091   -5.8513   -5.4686 C   0  0  1  0  0  0  0  0  0  0  0  0
    3.1330   -5.4234   -6.2088 H   0  0  0  0  0  0  0  0  0  0  0  0
    5.2816   -5.5181   -5.8190 C   0  0  1  0  0  0  0  0  0  0  0  0
    5.9219   -5.6238   -4.9433 H   0  0  0  0  0  0  0  0  0  0  0  0
    5.6200   -6.5928   -6.8819 C   0  0  0  0  0  0  0  0  0  0  0  0
    4.9054   -7.8420   -6.3978 C   0  0  0  0  0  0  0  0  0  0  0  0
    5.1958   -8.9826   -6.6680 O   0  0  0  0  0  0  0  0  0  0  0  0
    3.7574   -7.3925   -5.5141 C   0  0  2  0  0  0  0  0  0  0  0  0
    3.8794   -7.7992   -4.5102 H   0  0  0  0  0  0  0  0  0  0  0  0
    2.4245   -7.8537   -6.1072 C   0  0  0  0  0  0  0  0  0  0  0  0
    2.3350   -9.3562   -6.0335 C   0  0  0  0  0  0  0  0  0  0  0  0
    1.2888   -9.9240   -5.4864 C   0  0  0  0  0  0  0  0  0  0  0  0
    0.1019   -9.0874   -5.0835 C   0  0  0  0  0  0  0  0  0  0  0  0
   -1.1656   -9.6598   -5.7213 C   0  0  0  0  0  0  0  0  0  0  0  0
   -2.3706   -8.8104   -5.3122 C   0  0  0  0  0  0  0  0  0  0  0  0
   -3.6190   -9.3742   -5.9404 C   0  0  0  0  0  0  0  0  0  0  0  0
   -3.5513  -10.3637   -6.6495 O   0  0  0  0  0  0  0  0  0  0  0  0
   -4.6968   -8.8408   -5.7395 O   0  0  0  0  0  1  0  0  0  0  0  0
    5.3883   -4.2031   -6.3682 O   0  0  0  0  0  0  0  0  0  0  0  0
    3.0966   -4.4935   -1.6099 O   0  0  0  0  0  0  0  0  0  0  0  0
    2.1483    1.9498   -0.0165 H   0  0  0  0  0  0  0  0  0  0  0  0
    0.4630    1.9348   -0.5890 H   0  0  0  0  0  0  0  0  0  0  0  0
    0.8099    1.9395    1.1568 H   0  0  0  0  0  0  0  0  0  0  0  0
    1.8372   -0.3087    0.9587 H   0  0  0  0  0  0  0  0  0  0  0  0
    0.1518   -0.3237    0.3862 H   0  0  0  0  0  0  0  0  0  0  0  0
    0.9444   -0.1024   -1.9529 H   0  0  0  0  0  0  0  0  0  0  0  0
    2.6297   -0.0874   -1.3804 H   0  0  0  0  0  0  0  0  0  0  0  0
    2.3186   -2.3459   -0.4052 H   0  0  0  0  0  0  0  0  0  0  0  0
    0.6333   -2.3609   -0.9777 H   0  0  0  0  0  0  0  0  0  0  0  0
    1.4258   -2.1397   -3.3168 H   0  0  0  0  0  0  0  0  0  0  0  0
    3.1112   -2.1247   -2.7443 H   0  0  0  0  0  0  0  0  0  0  0  0
    1.8785   -4.2072   -4.7725 H   0  0  0  0  0  0  0  0  0  0  0  0
    4.0501   -5.6705   -3.2383 H   0  0  0  0  0  0  0  0  0  0  0  0
    5.2429   -6.2932   -7.8597 H   0  0  0  0  0  0  0  0  0  0  0  0
    6.6961   -6.7616   -6.9233 H   0  0  0  0  0  0  0  0  0  0  0  0
    1.6034   -7.4127   -5.5421 H   0  0  0  0  0  0  0  0  0  0  0  0
    2.3609   -7.5366   -7.1481 H   0  0  0  0  0  0  0  0  0  0  0  0
    3.1333   -9.9650   -6.4317 H   0  0  0  0  0  0  0  0  0  0  0  0
    1.2770  -10.9917   -5.3242 H   0  0  0  0  0  0  0  0  0  0  0  0
    0.0002   -9.0999   -3.9984 H   0  0  0  0  0  0  0  0  0  0  0  0
    0.2482   -8.0620   -5.4230 H   0  0  0  0  0  0  0  0  0  0  0  0
   -1.0638   -9.6473   -6.8065 H   0  0  0  0  0  0  0  0  0  0  0  0
   -1.3118  -10.6852   -5.3819 H   0  0  0  0  0  0  0  0  0  0  0  0
   -2.4724   -8.8229   -4.2271 H   0  0  0  0  0  0  0  0  0  0  0  0
   -2.2243   -7.7850   -5.6517 H   0  0  0  0  0  0  0  0  0  0  0  0
    6.2905   -3.9473   -6.6039 H   0  0  0  0  0  0  0  0  0  0  0  0
    3.9974   -4.2006   -1.8044 H   0  0  0  0  0  0  0  0  0  0  0  0
  1  2  1  0  0  0  0
  1 30  1  0  0  0  0
  1 31  1  0  0  0  0
  1 32  1  0  0  0  0
  2  3  1  0  0  0  0
  2 33  1  0  0  0  0
  2 34  1  0  0  0  0
  3  4  1  0  0  0  0
  3 35  1  0  0  0  0
  3 36  1  0  0  0  0
  4  5  1  0  0  0  0
  4 37  1  0  0  0  0
  4 38  1  0  0  0  0
  5  6  1  0  0  0  0
  5 39  1  0  0  0  0
  5 40  1  0  0  0  0
  6  7  1  1  0  0  0
  6  8  1  0  0  0  0
  6 29  1  0  0  0  0
  8  9  2  0  0  0  0
  8 41  1  0  0  0  0
  9 10  1  0  0  0  0
  9 42  1  0  0  0  0
 10 11  1  6  0  0  0
 10 17  1  0  0  0  0
 10 12  1  0  0  0  0
 12 13  1  1  0  0  0
 12 14  1  0  0  0  0
 12 28  1  0  0  0  0
 14 15  1  0  0  0  0
 14 43  1  0  0  0  0
 14 44  1  0  0  0  0
 15 16  2  0  0  0  0
 15 17  1  0  0  0  0
 17 18  1  1  0  0  0
 17 19  1  0  0  0  0
 19 20  1  0  0  0  0
 19 45  1  0  0  0  0
 19 46  1  0  0  0  0
 20 21  2  0  0  0  0
 20 47  1  0  0  0  0
 21 22  1  0  0  0  0
 21 48  1  0  0  0  0
 22 23  1  0  0  0  0
 22 49  1  0  0  0  0
 22 50  1  0  0  0  0
 23 24  1  0  0  0  0
 23 51  1  0  0  0  0
 23 52  1  0  0  0  0
 24 25  1  0  0  0  0
 24 53  1  0  0  0  0
 24 54  1  0  0  0  0
 25 26  2  0  0  0  0
 25 27  1  0  0  0  0
 28 55  1  0  0  0  0
 29 56  1  0  0  0  0
M  END
$$$$
