ZINC01530764
 OpenBabel08292219463D

 42 44  0  0  1  0  0  0  0  0999 V2000
   -0.0178    1.4648    0.0101 C   0  0  0  0  0  0  0  0  0  0  0  0
    0.0021   -0.0041    0.0020 N   0  3  0  0  0  0  0  0  0  0  0  0
    0.6897   -0.4778   -1.2066 C   0  0  0  0  0  0  0  0  0  0  0  0
    0.7104   -2.0077   -1.2150 C   0  0  0  0  0  0  0  0  0  0  0  0
    1.4265   -2.5011   -2.4738 C   0  0  0  0  0  0  0  0  0  0  0  0
    1.4473   -4.0309   -2.4822 C   0  0  1  0  0  0  0  0  0  0  0  0
    0.0390   -4.5446   -2.5676 C   0  0  0  0  0  0  0  0  0  0  0  0
   -0.4233   -5.4031   -1.5868 C   0  0  0  0  0  0  0  0  0  0  0  0
   -1.7126   -5.8988   -1.6416 C   0  0  0  0  0  0  0  0  0  0  0  0
   -2.5517   -5.5399   -2.6817 C   0  0  0  0  0  0  0  0  0  0  0  0
   -2.1059   -4.6837   -3.6643 C   0  0  0  0  0  0  0  0  0  0  0  0
   -0.8014   -4.1718   -3.6132 C   0  0  0  0  0  0  0  0  0  0  0  0
   -0.3612   -3.2467   -4.6596 C   0  0  0  0  0  0  0  0  0  0  0  0
    0.8189   -3.2253   -5.2369 C   0  0  0  0  0  0  0  0  0  0  0  0
    1.9404   -4.1242   -4.9540 C   0  0  0  0  0  0  0  0  0  0  0  0
    2.2558   -4.5086   -3.6537 C   0  0  0  0  0  0  0  0  0  0  0  0
    3.3317   -5.3483   -3.4277 C   0  0  0  0  0  0  0  0  0  0  0  0
    4.0907   -5.8132   -4.4853 C   0  0  0  0  0  0  0  0  0  0  0  0
    3.7789   -5.4419   -5.7814 C   0  0  0  0  0  0  0  0  0  0  0  0
    2.7125   -4.6034   -6.0219 C   0  0  0  0  0  0  0  0  0  0  0  0
    1.0047    1.8421    0.0024 H   0  0  0  0  0  0  0  0  0  0  0  0
   -0.5450    1.8259   -0.8730 H   0  0  0  0  0  0  0  0  0  0  0  0
   -0.5280    1.8163    0.9069 H   0  0  0  0  0  0  0  0  0  0  0  0
    0.4901   -0.3383    0.8195 H   0  0  0  0  0  0  0  0  0  0  0  0
    0.1625   -0.1167   -2.0897 H   0  0  0  0  0  0  0  0  0  0  0  0
    1.7123   -0.1005   -1.2143 H   0  0  0  0  0  0  0  0  0  0  0  0
    1.2376   -2.3687   -0.3319 H   0  0  0  0  0  0  0  0  0  0  0  0
   -0.3122   -2.3849   -1.2073 H   0  0  0  0  0  0  0  0  0  0  0  0
    0.8994   -2.1400   -3.3569 H   0  0  0  0  0  0  0  0  0  0  0  0
    2.4491   -2.1238   -2.4816 H   0  0  0  0  0  0  0  0  0  0  0  0
    1.9046   -4.3891   -1.5599 H   0  0  0  0  0  0  0  0  0  0  0  0
    0.2271   -5.6882   -0.7731 H   0  0  0  0  0  0  0  0  0  0  0  0
   -2.0656   -6.5680   -0.8709 H   0  0  0  0  0  0  0  0  0  0  0  0
   -3.5572   -5.9319   -2.7234 H   0  0  0  0  0  0  0  0  0  0  0  0
   -2.7625   -4.4057   -4.4754 H   0  0  0  0  0  0  0  0  0  0  0  0
   -1.0777   -2.5092   -4.9898 H   0  0  0  0  0  0  0  0  0  0  0  0
    0.9774   -2.4717   -5.9941 H   0  0  0  0  0  0  0  0  0  0  0  0
    3.5800   -5.6428   -2.4187 H   0  0  0  0  0  0  0  0  0  0  0  0
    4.9291   -6.4683   -4.2996 H   0  0  0  0  0  0  0  0  0  0  0  0
    4.3720   -5.8100   -6.6055 H   0  0  0  0  0  0  0  0  0  0  0  0
    2.4710   -4.3143   -7.0341 H   0  0  0  0  0  0  0  0  0  0  0  0
   -0.9445   -0.3533    0.0092 H   0  0  0  0  0  0  0  0  0  0  0  0
  1  2  1  0  0  0  0
  1 21  1  0  0  0  0
  1 22  1  0  0  0  0
  1 23  1  0  0  0  0
  2  3  1  0  0  0  0
  2 24  1  0  0  0  0
  2 42  1  0  0  0  0
  3  4  1  0  0  0  0
  3 25  1  0  0  0  0
  3 26  1  0  0  0  0
  4  5  1  0  0  0  0
  4 27  1  0  0  0  0
  4 28  1  0  0  0  0
  5  6  1  0  0  0  0
  5 29  1  0  0  0  0
  5 30  1  0  0  0  0
  6 16  1  0  0  0  0
  6  7  1  0  0  0  0
  6 31  1  1  0  0  0
  7 12  2  0  0  0  0
  7  8  1  0  0  0  0
  8  9  2  0  0  0  0
  8 32  1  0  0  0  0
  9 10  1  0  0  0  0
  9 33  1  0  0  0  0
 10 11  2  0  0  0  0
 10 34  1  0  0  0  0
 11 12  1  0  0  0  0
 11 35  1  0  0  0  0
 12 13  1  0  0  0  0
 13 14  2  0  0  0  0
 13 36  1  0  0  0  0
 14 15  1  0  0  0  0
 14 37  1  0  0  0  0
 15 20  2  0  0  0  0
 15 16  1  0  0  0  0
 16 17  2  0  0  0  0
 17 18  1  0  0  0  0
 17 38  1  0  0  0  0
 18 19  2  0  0  0  0
 18 39  1  0  0  0  0
 19 20  1  0  0  0  0
 19 40  1  0  0  0  0
 20 41  1  0  0  0  0
M  CHG  1   2   1
M  END
$$$$
