ZINC01280665
 OpenBabel08292219463D

 44 48  0  0  1  0  0  0  0  0999 V2000
   -0.0178    1.4648    0.0101 C   0  0  0  0  0  0  0  0  0  0  0  0
    0.0021   -0.0041    0.0020 N   0  3  1  0  0  0  0  0  0  0  0  0
    0.5491   -0.4713   -1.2755 C   0  0  0  0  0  0  0  0  0  0  0  0
    0.5469   -2.0045   -1.3185 C   0  0  0  0  0  0  0  0  0  0  0  0
    1.3719   -2.5168   -0.1396 C   0  0  2  0  0  0  0  0  0  0  0  0
    2.7648   -1.9412   -0.2099 C   0  0  0  0  0  0  0  0  0  0  0  0
    3.1828   -0.7360    0.3068 C   0  0  0  0  0  0  0  0  0  0  0  0
    4.5142   -0.4208    0.1011 C   0  0  0  0  0  0  0  0  0  0  0  0
    5.3533   -1.3194   -0.5376 C   0  0  0  0  0  0  0  0  0  0  0  0
    4.9342   -2.5703   -0.9845 C   0  0  0  0  0  0  0  0  0  0  0  0
    3.5865   -2.8958   -0.7911 C   0  0  0  0  0  0  0  0  0  0  0  0
    2.8895   -4.0256   -1.0383 O   0  0  0  0  0  0  0  0  0  0  0  0
    1.6630   -4.0070   -0.2477 C   0  0  1  0  0  0  0  0  0  0  0  0
    0.8541   -4.5335   -0.7543 H   0  0  0  0  0  0  0  0  0  0  0  0
    1.9826   -4.6203    1.0837 C   0  0  0  0  0  0  0  0  0  0  0  0
    2.6597   -5.6199    1.1088 O   0  0  0  0  0  0  0  0  0  0  0  0
    1.5018   -4.0508    2.3844 C   0  0  0  0  0  0  0  0  0  0  0  0
    1.5931   -2.5238    2.3515 C   0  0  0  0  0  0  0  0  0  0  0  0
    0.7784   -2.0112    1.1655 C   0  0  1  0  0  0  0  0  0  0  0  0
   -0.2521   -2.3547    1.2551 H   0  0  0  0  0  0  0  0  0  0  0  0
    0.8140   -0.4812    1.1267 C   0  0  1  0  0  0  0  0  0  0  0  0
    0.3534   -0.1156    2.0445 H   0  0  0  0  0  0  0  0  0  0  0  0
    2.2123    0.1096    1.0659 C   0  0  0  0  0  0  0  0  0  0  0  0
    5.7955   -3.4364   -1.5825 O   0  0  0  0  0  0  0  0  0  0  0  0
    7.1498   -3.0054   -1.7315 C   0  0  0  0  0  0  0  0  0  0  0  0
    0.9744    1.8430   -0.2361 H   0  0  0  0  0  0  0  0  0  0  0  0
   -0.7363    1.8225   -0.7274 H   0  0  0  0  0  0  0  0  0  0  0  0
   -0.3063    1.8188    0.9998 H   0  0  0  0  0  0  0  0  0  0  0  0
   -0.0606   -0.0857   -2.0926 H   0  0  0  0  0  0  0  0  0  0  0  0
    1.5707   -0.1079   -1.3860 H   0  0  0  0  0  0  0  0  0  0  0  0
   -0.4759   -2.3730   -1.2392 H   0  0  0  0  0  0  0  0  0  0  0  0
    0.9901   -2.3467   -2.2537 H   0  0  0  0  0  0  0  0  0  0  0  0
    4.9007    0.5292    0.4393 H   0  0  0  0  0  0  0  0  0  0  0  0
    6.3832   -1.0359   -0.6970 H   0  0  0  0  0  0  0  0  0  0  0  0
    0.4660   -4.3480    2.5487 H   0  0  0  0  0  0  0  0  0  0  0  0
    2.1196   -4.4329    3.1971 H   0  0  0  0  0  0  0  0  0  0  0  0
    1.1898   -2.1132    3.2771 H   0  0  0  0  0  0  0  0  0  0  0  0
    2.6343   -2.2220    2.2378 H   0  0  0  0  0  0  0  0  0  0  0  0
    2.5819    0.2376    2.0833 H   0  0  0  0  0  0  0  0  0  0  0  0
    2.1571    1.0894    0.5914 H   0  0  0  0  0  0  0  0  0  0  0  0
    7.1782   -2.0993   -2.3368 H   0  0  0  0  0  0  0  0  0  0  0  0
    7.5758   -2.7998   -0.7495 H   0  0  0  0  0  0  0  0  0  0  0  0
    7.7283   -3.7882   -2.2219 H   0  0  0  0  0  0  0  0  0  0  0  0
   -0.9407   -0.3488    0.1041 H   0  0  0  0  0  0  0  0  0  0  0  0
  1  2  1  0  0  0  0
  1 26  1  0  0  0  0
  1 27  1  0  0  0  0
  1 28  1  0  0  0  0
  2 21  1  0  0  0  0
  2  3  1  0  0  0  0
  2 44  1  1  0  0  0
  3  4  1  0  0  0  0
  3 29  1  0  0  0  0
  3 30  1  0  0  0  0
  4  5  1  0  0  0  0
  4 31  1  0  0  0  0
  4 32  1  0  0  0  0
  5 13  1  0  0  0  0
  5 19  1  0  0  0  0
  5  6  1  6  0  0  0
  6 11  2  0  0  0  0
  6  7  1  0  0  0  0
  7 23  1  0  0  0  0
  7  8  2  0  0  0  0
  8  9  1  0  0  0  0
  8 33  1  0  0  0  0
  9 10  2  0  0  0  0
  9 34  1  0  0  0  0
 10 11  1  0  0  0  0
 10 24  1  0  0  0  0
 11 12  1  0  0  0  0
 12 13  1  0  0  0  0
 13 14  1  6  0  0  0
 13 15  1  0  0  0  0
 15 16  2  0  0  0  0
 15 17  1  0  0  0  0
 17 18  1  0  0  0  0
 17 35  1  0  0  0  0
 17 36  1  0  0  0  0
 18 19  1  0  0  0  0
 18 37  1  0  0  0  0
 18 38  1  0  0  0  0
 19 20  1  1  0  0  0
 19 21  1  0  0  0  0
 21 22  1  1  0  0  0
 21 23  1  0  0  0  0
 23 39  1  0  0  0  0
 23 40  1  0  0  0  0
 24 25  1  0  0  0  0
 25 41  1  0  0  0  0
 25 42  1  0  0  0  0
 25 43  1  0  0  0  0
M  CHG  1   2   1
M  END
$$$$
