ZINC02041046
 OpenBabel08292219463D

 29 29  0  0  0  0  0  0  0  0999 V2000
    3.8955   -1.0520   -3.5304 C   0  0  0  0  0  0  0  0  0  0  0  0
    5.0588   -1.5324   -2.7807 N   0  0  0  0  0  0  0  0  0  0  0  0
    5.0536   -1.4965   -1.4063 C   0  0  0  0  0  0  0  0  0  0  0  0
    7.2695   -2.5684   -1.3330 C   0  0  0  0  0  0  0  0  0  0  0  0
    4.0035   -0.9127   -0.7380 N   0  0  0  0  0  0  0  0  0  0  0  0
    3.9980   -0.8744    0.7266 C   0  0  0  0  0  0  0  0  0  0  0  0
    2.7461   -0.1861    1.2063 C   0  0  0  0  0  0  0  0  0  0  0  0
    1.6027   -0.9232    1.4517 C   0  0  0  0  0  0  0  0  0  0  0  0
    0.4543   -0.2918    1.8914 C   0  0  0  0  0  0  0  0  0  0  0  0
    0.4492    1.0768    2.0856 C   0  0  0  0  0  0  0  0  0  0  0  0
    1.5927    1.8140    1.8407 C   0  0  0  0  0  0  0  0  0  0  0  0
    2.7411    1.1826    1.4005 C   0  0  0  0  0  0  0  0  0  0  0  0
    3.0026   -1.5775   -3.1916 H   0  0  0  0  0  0  0  0  0  0  0  0
    3.7724    0.0181   -3.3639 H   0  0  0  0  0  0  0  0  0  0  0  0
    4.0458   -1.2393   -4.5937 H   0  0  0  0  0  0  0  0  0  0  0  0
    5.8328   -1.8757   -3.2540 H   0  0  0  0  0  0  0  0  0  0  0  0
    7.9633   -2.8545   -0.5426 H   0  0  0  0  0  0  0  0  0  0  0  0
    7.0186   -3.4446   -1.9309 H   0  0  0  0  0  0  0  0  0  0  0  0
    7.7342   -1.8152   -1.9693 H   0  0  0  0  0  0  0  0  0  0  0  0
    3.2664   -0.5261   -1.2360 H   0  0  0  0  0  0  0  0  0  0  0  0
    4.8717   -0.3263    1.0790 H   0  0  0  0  0  0  0  0  0  0  0  0
    4.0254   -1.8918    1.1167 H   0  0  0  0  0  0  0  0  0  0  0  0
    1.6066   -1.9924    1.2995 H   0  0  0  0  0  0  0  0  0  0  0  0
   -0.4391   -0.8676    2.0827 H   0  0  0  0  0  0  0  0  0  0  0  0
   -0.4493    1.5708    2.4244 H   0  0  0  0  0  0  0  0  0  0  0  0
    1.5888    2.8833    1.9922 H   0  0  0  0  0  0  0  0  0  0  0  0
    3.6342    1.7586    1.2085 H   0  0  0  0  0  0  0  0  0  0  0  0
    6.0394   -2.0181   -0.6662 N   0  0  0  0  0  4  0  0  0  0  0  0
    5.9556   -2.0425    0.3568 H   0  0  0  0  0  0  0  0  0  0  0  0
  1  2  1  0  0  0  0
  1 13  1  0  0  0  0
  1 14  1  0  0  0  0
  1 15  1  0  0  0  0
  2  3  1  0  0  0  0
  2 16  1  0  0  0  0
  3  5  1  0  0  0  0
  3 28  2  0  0  0  0
  4 17  1  0  0  0  0
  4 18  1  0  0  0  0
  4 19  1  0  0  0  0
  4 28  1  0  0  0  0
  5  6  1  0  0  0  0
  5 20  1  0  0  0  0
  6  7  1  0  0  0  0
  6 21  1  0  0  0  0
  6 22  1  0  0  0  0
  7 12  2  0  0  0  0
  7  8  1  0  0  0  0
  8  9  2  0  0  0  0
  8 23  1  0  0  0  0
  9 10  1  0  0  0  0
  9 24  1  0  0  0  0
 10 11  2  0  0  0  0
 10 25  1  0  0  0  0
 11 12  1  0  0  0  0
 11 26  1  0  0  0  0
 12 27  1  0  0  0  0
 28 29  1  0  0  0  0
M  END
$$$$
