ZINC00057533
 OpenBabel08292219463D

 41 42  0  0  1  0  0  0  0  0999 V2000
   -0.5436    1.7669    0.1592 C   0  0  0  0  0  0  0  0  0  0  0  0
   -0.3285    0.2683   -0.0614 C   0  0  0  0  0  0  0  0  0  0  0  0
   -1.6125   -0.4296    0.0409 N   0  0  0  0  0  0  0  0  0  0  0  0
   -2.4379   -0.6241   -1.1537 C   0  0  0  0  0  0  0  0  0  0  0  0
   -2.0683   -1.9280   -1.8128 C   0  0  0  0  0  0  0  0  0  0  0  0
   -1.0723   -1.9791   -2.7760 C   0  0  0  0  0  0  0  0  0  0  0  0
   -0.7606   -3.1929   -3.3587 C   0  0  0  0  0  0  0  0  0  0  0  0
   -1.3984   -4.2927   -3.0086 N   0  0  0  0  0  0  0  0  0  0  0  0
   -2.3507   -4.2816   -2.0965 C   0  0  0  0  0  0  0  0  0  0  0  0
   -2.7123   -3.1059   -1.4663 C   0  0  0  0  0  0  0  0  0  0  0  0
   -2.0345   -0.8928    1.2342 C   0  0  0  0  0  0  0  0  0  0  0  0
   -3.0514   -1.5500    1.3044 O   0  0  0  0  0  0  0  0  0  0  0  0
   -1.2428   -0.5940    2.4812 C   0  0  2  0  0  0  0  0  0  0  0  0
   -0.6548    0.3113    2.3301 H   0  0  0  0  0  0  0  0  0  0  0  0
   -0.3065   -1.7656    2.7839 C   0  0  0  0  0  0  0  0  0  0  0  0
    0.6513   -1.8941    1.7312 O   0  0  0  0  0  0  0  0  0  0  0  0
   -2.1862   -0.3928    3.6390 C   0  0  0  0  0  0  0  0  0  0  0  0
   -3.0349   -1.4136    4.0245 C   0  0  0  0  0  0  0  0  0  0  0  0
   -3.9003   -1.2291    5.0866 C   0  0  0  0  0  0  0  0  0  0  0  0
   -3.9166   -0.0239    5.7634 C   0  0  0  0  0  0  0  0  0  0  0  0
   -3.0673    0.9966    5.3785 C   0  0  0  0  0  0  0  0  0  0  0  0
   -2.1989    0.8106    4.3192 C   0  0  0  0  0  0  0  0  0  0  0  0
    0.4118    2.2862    0.0831 H   0  0  0  0  0  0  0  0  0  0  0  0
   -1.2273    2.1512   -0.5977 H   0  0  0  0  0  0  0  0  0  0  0  0
   -0.9684    1.9311    1.1495 H   0  0  0  0  0  0  0  0  0  0  0  0
    0.0963    0.1041   -1.0518 H   0  0  0  0  0  0  0  0  0  0  0  0
    0.3553   -0.1160    0.6955 H   0  0  0  0  0  0  0  0  0  0  0  0
   -3.4898   -0.6462   -0.8690 H   0  0  0  0  0  0  0  0  0  0  0  0
   -2.2673    0.1965   -1.8507 H   0  0  0  0  0  0  0  0  0  0  0  0
   -0.5469   -1.0816   -3.0675 H   0  0  0  0  0  0  0  0  0  0  0  0
    0.0139   -3.2412   -4.1098 H   0  0  0  0  0  0  0  0  0  0  0  0
   -2.8511   -5.2026   -1.8360 H   0  0  0  0  0  0  0  0  0  0  0  0
   -3.4896   -3.1041   -0.7165 H   0  0  0  0  0  0  0  0  0  0  0  0
    0.2109   -1.5833    3.7257 H   0  0  0  0  0  0  0  0  0  0  0  0
   -0.8876   -2.6846    2.8605 H   0  0  0  0  0  0  0  0  0  0  0  0
    1.2790   -2.6189    1.8569 H   0  0  0  0  0  0  0  0  0  0  0  0
   -3.0221   -2.3552    3.4957 H   0  0  0  0  0  0  0  0  0  0  0  0
   -4.5638   -2.0264    5.3873 H   0  0  0  0  0  0  0  0  0  0  0  0
   -4.5932    0.1205    6.5927 H   0  0  0  0  0  0  0  0  0  0  0  0
   -3.0803    1.9383    5.9072 H   0  0  0  0  0  0  0  0  0  0  0  0
   -1.5327    1.6065    4.0209 H   0  0  0  0  0  0  0  0  0  0  0  0
  1  2  1  0  0  0  0
  1 23  1  0  0  0  0
  1 24  1  0  0  0  0
  1 25  1  0  0  0  0
  2  3  1  0  0  0  0
  2 26  1  0  0  0  0
  2 27  1  0  0  0  0
  3  4  1  0  0  0  0
  3 11  1  0  0  0  0
  4  5  1  0  0  0  0
  4 28  1  0  0  0  0
  4 29  1  0  0  0  0
  5 10  2  0  0  0  0
  5  6  1  0  0  0  0
  6  7  2  0  0  0  0
  6 30  1  0  0  0  0
  7  8  1  0  0  0  0
  7 31  1  0  0  0  0
  8  9  2  0  0  0  0
  9 10  1  0  0  0  0
  9 32  1  0  0  0  0
 10 33  1  0  0  0  0
 11 12  2  0  0  0  0
 11 13  1  0  0  0  0
 13 14  1  6  0  0  0
 13 15  1  0  0  0  0
 13 17  1  0  0  0  0
 15 16  1  0  0  0  0
 15 34  1  0  0  0  0
 15 35  1  0  0  0  0
 16 36  1  0  0  0  0
 17 22  2  0  0  0  0
 17 18  1  0  0  0  0
 18 19  2  0  0  0  0
 18 37  1  0  0  0  0
 19 20  1  0  0  0  0
 19 38  1  0  0  0  0
 20 21  2  0  0  0  0
 20 39  1  0  0  0  0
 21 22  1  0  0  0  0
 21 40  1  0  0  0  0
 22 41  1  0  0  0  0
M  END
$$$$
