ZINC00057435
 OpenBabel08292219463D

 44 45  0  0  0  0  0  0  0  0999 V2000
   -0.0184    1.5028    0.0103 C   0  0  0  0  0  0  0  0  0  0  0  0
    0.0021   -0.0041    0.0020 C   0  0  0  0  0  0  0  0  0  0  0  0
    0.0057   -0.6877   -1.2000 C   0  0  0  0  0  0  0  0  0  0  0  0
    0.0240   -2.0688   -1.2103 C   0  0  0  0  0  0  0  0  0  0  0  0
    0.0391   -2.7702   -0.0132 C   0  0  0  0  0  0  0  0  0  0  0  0
    0.0359   -2.0821    1.1912 C   0  0  0  0  0  0  0  0  0  0  0  0
    0.0229   -0.7005    1.1961 C   0  0  0  0  0  0  0  0  0  0  0  0
    0.0251    0.0478    2.5041 C   0  0  0  0  0  0  0  0  0  0  0  0
   -1.3948    0.2779    2.9536 C   0  0  0  0  0  0  0  0  0  0  0  0
   -2.0787    1.3438    2.6094 N   0  0  0  0  0  4  0  0  0  0  0  0
   -3.4229    1.2717    3.2045 C   0  0  0  0  0  0  0  0  0  0  0  0
   -3.3949   -0.0637    3.9766 C   0  0  0  0  0  0  0  0  0  0  0  0
   -2.0402   -0.5755    3.7135 N   0  0  0  0  0  0  0  0  0  0  0  0
    0.0523   -2.8407    2.4932 C   0  0  0  0  0  0  0  0  0  0  0  0
    0.0567   -4.1291   -0.0207 O   0  0  0  0  0  0  0  0  0  0  0  0
    0.0269   -2.8132   -2.5206 C   0  0  0  0  0  0  0  0  0  0  0  0
    0.0075   -1.8111   -3.6766 C   0  0  0  0  0  0  0  0  0  0  0  0
    1.2872   -3.6756   -2.6144 C   0  0  0  0  0  0  0  0  0  0  0  0
   -1.2110   -3.7088   -2.6012 C   0  0  0  0  0  0  0  0  0  0  0  0
    1.0042    1.8801    0.0026 H   0  0  0  0  0  0  0  0  0  0  0  0
   -0.5455    1.8639   -0.8728 H   0  0  0  0  0  0  0  0  0  0  0  0
   -0.5286    1.8543    0.9071 H   0  0  0  0  0  0  0  0  0  0  0  0
   -0.0061   -0.1413   -2.1315 H   0  0  0  0  0  0  0  0  0  0  0  0
    0.5541   -0.5371    3.2565 H   0  0  0  0  0  0  0  0  0  0  0  0
    0.5247    1.0077    2.3728 H   0  0  0  0  0  0  0  0  0  0  0  0
   -3.5875    2.1066    3.8856 H   0  0  0  0  0  0  0  0  0  0  0  0
   -4.1871    1.2511    2.4276 H   0  0  0  0  0  0  0  0  0  0  0  0
   -3.5456    0.1050    5.0429 H   0  0  0  0  0  0  0  0  0  0  0  0
   -4.1452   -0.7506    3.5848 H   0  0  0  0  0  0  0  0  0  0  0  0
   -1.6805   -1.4110    4.0501 H   0  0  0  0  0  0  0  0  0  0  0  0
    1.0838   -3.0100    2.8021 H   0  0  0  0  0  0  0  0  0  0  0  0
   -0.4655   -2.2615    3.2577 H   0  0  0  0  0  0  0  0  0  0  0  0
   -0.4495   -3.7993    2.3615 H   0  0  0  0  0  0  0  0  0  0  0  0
    0.9450   -4.5109   -0.0273 H   0  0  0  0  0  0  0  0  0  0  0  0
    0.8894   -1.1731   -3.6192 H   0  0  0  0  0  0  0  0  0  0  0  0
    0.0096   -2.3495   -4.6243 H   0  0  0  0  0  0  0  0  0  0  0  0
   -0.8904   -1.1967   -3.6098 H   0  0  0  0  0  0  0  0  0  0  0  0
    1.3010   -4.3896   -1.7909 H   0  0  0  0  0  0  0  0  0  0  0  0
    1.2893   -4.2141   -3.5621 H   0  0  0  0  0  0  0  0  0  0  0  0
    2.1691   -3.0376   -2.5570 H   0  0  0  0  0  0  0  0  0  0  0  0
   -2.1089   -3.0944   -2.5344 H   0  0  0  0  0  0  0  0  0  0  0  0
   -1.2089   -4.2472   -3.5489 H   0  0  0  0  0  0  0  0  0  0  0  0
   -1.1972   -4.4227   -1.7776 H   0  0  0  0  0  0  0  0  0  0  0  0
   -1.7499    2.0657    2.0512 H   0  0  0  0  0  0  0  0  0  0  0  0
  1  2  1  0  0  0  0
  1 20  1  0  0  0  0
  1 21  1  0  0  0  0
  1 22  1  0  0  0  0
  2  7  2  0  0  0  0
  2  3  1  0  0  0  0
  3  4  2  0  0  0  0
  3 23  1  0  0  0  0
  4  5  1  0  0  0  0
  4 16  1  0  0  0  0
  5  6  2  0  0  0  0
  5 15  1  0  0  0  0
  6  7  1  0  0  0  0
  6 14  1  0  0  0  0
  7  8  1  0  0  0  0
  8  9  1  0  0  0  0
  8 24  1  0  0  0  0
  8 25  1  0  0  0  0
  9 13  1  0  0  0  0
  9 10  2  0  0  0  0
 10 11  1  0  0  0  0
 10 44  1  0  0  0  0
 11 12  1  0  0  0  0
 11 26  1  0  0  0  0
 11 27  1  0  0  0  0
 12 13  1  0  0  0  0
 12 28  1  0  0  0  0
 12 29  1  0  0  0  0
 13 30  1  0  0  0  0
 14 31  1  0  0  0  0
 14 32  1  0  0  0  0
 14 33  1  0  0  0  0
 15 34  1  0  0  0  0
 16 17  1  0  0  0  0
 16 18  1  0  0  0  0
 16 19  1  0  0  0  0
 17 35  1  0  0  0  0
 17 36  1  0  0  0  0
 17 37  1  0  0  0  0
 18 38  1  0  0  0  0
 18 39  1  0  0  0  0
 18 40  1  0  0  0  0
 19 41  1  0  0  0  0
 19 42  1  0  0  0  0
 19 43  1  0  0  0  0
M  END
$$$$
