ZINC18279672
 OpenBabel08292219463D

 52 54  0  0  1  0  0  0  0  0999 V2000
   10.3914    0.6209   -2.9939 C   0  0  0  0  0  0  0  0  0  0  0  0
    9.9324    1.6032   -1.9474 C   0  0  0  0  0  0  0  0  0  0  0  0
   10.8080    2.5530   -1.5269 N   0  0  0  0  0  0  0  0  0  0  0  0
   11.7018    2.5827   -1.9025 H   0  0  0  0  0  0  0  0  0  0  0  0
   10.4445    3.4586   -0.5889 C   0  0  0  0  0  0  0  0  0  0  0  0
   11.2187    4.3151   -0.2033 O   0  0  0  0  0  0  0  0  0  0  0  0
    9.0777    3.3677   -0.0542 C   0  0  0  0  0  0  0  0  0  0  0  0
    8.6044    4.2514    0.9136 C   0  0  0  0  0  0  0  0  0  0  0  0
    7.3145    4.1207    1.3792 C   0  0  0  0  0  0  0  0  0  0  0  0
    6.4876    3.1147    0.8963 C   0  0  0  0  0  0  0  0  0  0  0  0
    6.9345    2.2343   -0.0630 C   0  0  0  0  0  0  0  0  0  0  0  0
    8.2378    2.3468   -0.5515 C   0  0  0  0  0  0  0  0  0  0  0  0
    8.7202    1.4988   -1.4941 N   0  0  0  0  0  0  0  0  0  0  0  0
    6.7981    5.0737    2.4262 C   0  0  0  0  0  0  0  0  0  0  0  0
    6.1861    6.2329    1.7721 N   0  0  0  0  0  0  0  0  0  0  0  0
    6.9998    7.4090    1.4544 C   0  0  0  0  0  0  0  0  0  0  0  0
    4.8379    6.2170    1.4541 C   0  0  0  0  0  0  0  0  0  0  0  0
    4.0888    7.2017    0.8433 C   0  0  0  0  0  0  0  0  0  0  0  0
    2.7578    6.9738    0.6212 C   0  0  0  0  0  0  0  0  0  0  0  0
    2.2441    5.7510    1.0309 C   0  0  0  0  0  0  0  0  0  0  0  0
    3.6794    4.9577    1.7328 S   0  0  0  0  0  0  0  0  0  0  0  0
    0.9186    5.2612    0.9245 C   0  0  0  0  0  0  0  0  0  0  0  0
    0.0538    5.9506    0.4145 O   0  0  0  0  0  0  0  0  0  0  0  0
    0.6151    4.0324    1.3875 N   0  0  0  0  0  0  0  0  0  0  0  0
   -0.7552    3.5260    1.2775 C   0  0  1  0  0  0  0  0  0  0  0  0
   -1.2033    3.8884    0.3523 H   0  0  0  0  0  0  0  0  0  0  0  0
   -0.7345    1.9962    1.2691 C   0  0  0  0  0  0  0  0  0  0  0  0
   -0.0184    1.5028    0.0103 C   0  0  0  0  0  0  0  0  0  0  0  0
    0.0021   -0.0041    0.0020 C   0  0  0  0  0  0  0  0  0  0  0  0
   -0.5042   -0.6201    0.9098 O   0  0  0  0  0  0  0  0  0  0  0  0
   -1.5658    4.0110    2.4518 C   0  0  0  0  0  0  0  0  0  0  0  0
   -1.0516    4.7080    3.2942 O   0  0  0  0  0  0  0  0  0  0  0  0
   10.8333   -0.2486   -2.5072 H   0  0  0  0  0  0  0  0  0  0  0  0
    9.5388    0.3061   -3.5957 H   0  0  0  0  0  0  0  0  0  0  0  0
   11.1341    1.0945   -3.6359 H   0  0  0  0  0  0  0  0  0  0  0  0
    9.2443    5.0328    1.2961 H   0  0  0  0  0  0  0  0  0  0  0  0
    5.4806    3.0240    1.2757 H   0  0  0  0  0  0  0  0  0  0  0  0
    6.2812    1.4583   -0.4338 H   0  0  0  0  0  0  0  0  0  0  0  0
    7.6246    5.4055    3.0547 H   0  0  0  0  0  0  0  0  0  0  0  0
    6.0536    4.5687    3.0417 H   0  0  0  0  0  0  0  0  0  0  0  0
    6.9800    8.1025    2.2951 H   0  0  0  0  0  0  0  0  0  0  0  0
    8.0272    7.0991    1.2632 H   0  0  0  0  0  0  0  0  0  0  0  0
    6.5977    7.9004    0.5685 H   0  0  0  0  0  0  0  0  0  0  0  0
    4.5442    8.1348    0.5463 H   0  0  0  0  0  0  0  0  0  0  0  0
    2.1325    7.7151    0.1461 H   0  0  0  0  0  0  0  0  0  0  0  0
    1.3039    3.4833    1.7937 H   0  0  0  0  0  0  0  0  0  0  0  0
   -1.7571    1.6189    1.2768 H   0  0  0  0  0  0  0  0  0  0  0  0
   -0.2073    1.6351    2.1522 H   0  0  0  0  0  0  0  0  0  0  0  0
    1.0042    1.8801    0.0026 H   0  0  0  0  0  0  0  0  0  0  0  0
   -0.5455    1.8639   -0.8728 H   0  0  0  0  0  0  0  0  0  0  0  0
    0.5827   -0.6618   -1.0138 O   0  0  0  0  0  1  0  0  0  0  0  0
   -2.8590    3.6685    2.5619 O   0  0  0  0  0  1  0  0  0  0  0  0
  1  2  1  0  0  0  0
  1 33  1  0  0  0  0
  1 34  1  0  0  0  0
  1 35  1  0  0  0  0
  2 13  2  0  0  0  0
  2  3  1  0  0  0  0
  3  4  1  0  0  0  0
  3  5  1  0  0  0  0
  5  6  2  0  0  0  0
  5  7  1  0  0  0  0
  7 12  2  0  0  0  0
  7  8  1  0  0  0  0
  8  9  2  0  0  0  0
  8 36  1  0  0  0  0
  9 10  1  0  0  0  0
  9 14  1  0  0  0  0
 10 11  2  0  0  0  0
 10 37  1  0  0  0  0
 11 12  1  0  0  0  0
 11 38  1  0  0  0  0
 12 13  1  0  0  0  0
 14 15  1  0  0  0  0
 14 39  1  0  0  0  0
 14 40  1  0  0  0  0
 15 16  1  0  0  0  0
 15 17  1  0  0  0  0
 16 41  1  0  0  0  0
 16 42  1  0  0  0  0
 16 43  1  0  0  0  0
 17 21  1  0  0  0  0
 17 18  2  0  0  0  0
 18 19  1  0  0  0  0
 18 44  1  0  0  0  0
 19 20  2  0  0  0  0
 19 45  1  0  0  0  0
 20 21  1  0  0  0  0
 20 22  1  0  0  0  0
 22 23  2  0  0  0  0
 22 24  1  0  0  0  0
 24 25  1  0  0  0  0
 24 46  1  0  0  0  0
 25 26  1  6  0  0  0
 25 27  1  0  0  0  0
 25 31  1  0  0  0  0
 27 28  1  0  0  0  0
 27 47  1  0  0  0  0
 27 48  1  0  0  0  0
 28 29  1  0  0  0  0
 28 49  1  0  0  0  0
 28 50  1  0  0  0  0
 29 30  2  0  0  0  0
 29 51  1  0  0  0  0
 31 32  2  0  0  0  0
 31 52  1  0  0  0  0
M  END
$$$$
