ZINC33963598
 OpenBabel08292219463D

 38 38  0  0  0  0  0  0  0  0999 V2000
   -0.0187    1.5253    0.0104 C   0  0  0  0  0  0  0  0  0  0  0  0
    1.4198    2.0453   -0.0005 C   0  0  0  0  0  0  0  0  0  0  0  0
    2.2290    1.2261   -1.0126 C   0  0  0  0  0  0  0  0  0  0  0  0
    1.8555    1.6574   -2.4295 C   0  0  0  0  0  0  0  0  0  0  0  0
    0.5593    1.0813   -2.8134 N   0  3  0  0  0  0  0  0  0  0  0  0
    0.5049   -0.3338   -2.4222 C   0  0  0  0  0  0  0  0  0  0  0  0
   -0.5510   -0.5169   -1.3251 C   0  0  0  0  0  0  0  0  0  0  0  0
    0.0021   -0.0041    0.0020 C   0  0  0  0  0  0  0  0  0  0  0  0
    0.3878    1.1923   -4.2681 C   0  0  0  0  0  0  0  0  0  0  0  0
   -1.0109    0.7078   -4.6552 C   0  0  0  0  0  0  0  0  0  0  0  0
   -1.1820    0.8185   -6.1059 N   0  0  0  0  0  4  0  0  0  0  0  0
   -2.3060    0.4584   -6.6590 C   0  0  0  0  0  0  0  0  0  0  0  0
   -3.3310   -0.0253   -5.8809 N   0  0  0  0  0  0  0  0  0  0  0  0
   -2.4665    0.5623   -8.0204 N   0  0  0  0  0  0  0  0  0  0  0  0
   -0.5269    1.8780    0.9079 H   0  0  0  0  0  0  0  0  0  0  0  0
   -0.5439    1.8876   -0.8733 H   0  0  0  0  0  0  0  0  0  0  0  0
    1.4268    3.0958   -0.2910 H   0  0  0  0  0  0  0  0  0  0  0  0
    1.8563    1.9347    0.9921 H   0  0  0  0  0  0  0  0  0  0  0  0
    3.2933    1.3959   -0.8496 H   0  0  0  0  0  0  0  0  0  0  0  0
    2.0059    0.1669   -0.8843 H   0  0  0  0  0  0  0  0  0  0  0  0
    1.7935    2.7448   -2.4711 H   0  0  0  0  0  0  0  0  0  0  0  0
    2.6223    1.3155   -3.1246 H   0  0  0  0  0  0  0  0  0  0  0  0
    0.2390   -0.9405   -3.2879 H   0  0  0  0  0  0  0  0  0  0  0  0
    1.4791   -0.6447   -2.0450 H   0  0  0  0  0  0  0  0  0  0  0  0
   -1.4479    0.0448   -1.5865 H   0  0  0  0  0  0  0  0  0  0  0  0
   -0.7985   -1.5743   -1.2315 H   0  0  0  0  0  0  0  0  0  0  0  0
    1.0268   -0.3538    0.1275 H   0  0  0  0  0  0  0  0  0  0  0  0
   -0.6119   -0.3798    0.8205 H   0  0  0  0  0  0  0  0  0  0  0  0
    0.5083    2.2328   -4.5699 H   0  0  0  0  0  0  0  0  0  0  0  0
    1.1364    0.5794   -4.7701 H   0  0  0  0  0  0  0  0  0  0  0  0
   -1.1314   -0.3327   -4.3535 H   0  0  0  0  0  0  0  0  0  0  0  0
   -1.7596    1.3207   -4.1532 H   0  0  0  0  0  0  0  0  0  0  0  0
   -3.2178   -0.0986   -4.9203 H   0  0  0  0  0  0  0  0  0  0  0  0
   -4.1675   -0.2933   -6.2924 H   0  0  0  0  0  0  0  0  0  0  0  0
   -1.7433    0.9035   -8.5694 H   0  0  0  0  0  0  0  0  0  0  0  0
   -3.3030    0.2943   -8.4320 H   0  0  0  0  0  0  0  0  0  0  0  0
   -0.4588    1.1597   -6.6549 H   0  0  0  0  0  0  0  0  0  0  0  0
   -0.1819    1.5857   -2.3504 H   0  0  0  0  0  0  0  0  0  0  0  0
  1  8  1  0  0  0  0
  1  2  1  0  0  0  0
  1 15  1  0  0  0  0
  1 16  1  0  0  0  0
  2  3  1  0  0  0  0
  2 17  1  0  0  0  0
  2 18  1  0  0  0  0
  3  4  1  0  0  0  0
  3 19  1  0  0  0  0
  3 20  1  0  0  0  0
  4  5  1  0  0  0  0
  4 21  1  0  0  0  0
  4 22  1  0  0  0  0
  5  6  1  0  0  0  0
  5  9  1  0  0  0  0
  5 38  1  0  0  0  0
  6  7  1  0  0  0  0
  6 23  1  0  0  0  0
  6 24  1  0  0  0  0
  7  8  1  0  0  0  0
  7 25  1  0  0  0  0
  7 26  1  0  0  0  0
  8 27  1  0  0  0  0
  8 28  1  0  0  0  0
  9 10  1  0  0  0  0
  9 29  1  0  0  0  0
  9 30  1  0  0  0  0
 10 11  1  0  0  0  0
 10 31  1  0  0  0  0
 10 32  1  0  0  0  0
 11 12  2  0  0  0  0
 11 37  1  0  0  0  0
 12 13  1  0  0  0  0
 12 14  1  0  0  0  0
 13 33  1  0  0  0  0
 13 34  1  0  0  0  0
 14 35  1  0  0  0  0
 14 36  1  0  0  0  0
M  CHG  1   5   1
M  END
$$$$
