ZINC00000056
 OpenBabel08292219463D

 45 47  0  0  1  0  0  0  0  0999 V2000
    2.2343    0.9624    0.9414 C   0  0  0  0  0  0  0  0  0  0  0  0
    1.1368    3.0751    0.4242 C   0  0  2  0  0  0  0  0  0  0  0  0
    2.0616    3.5602    0.7367 H   0  0  0  0  0  0  0  0  0  0  0  0
    0.1019    2.9691    1.5678 C   0  0  0  0  0  0  0  0  0  0  0  0
   -0.6578    1.6547    1.2928 C   0  0  0  0  0  0  0  0  0  0  0  0
   -0.0127    1.0858    0.0080 C   0  0  1  0  0  0  0  0  0  0  0  0
    0.0021   -0.0041    0.0020 H   0  0  0  0  0  0  0  0  0  0  0  0
   -0.7610    1.6613   -1.2051 C   0  0  0  0  0  0  0  0  0  0  0  0
   -0.9096    3.1855   -1.0012 C   0  0  1  0  0  0  0  0  0  0  0  0
    0.4670    3.8073   -0.7497 C   0  0  0  0  0  0  0  0  0  0  0  0
   -1.4937    3.7719   -2.1942 O   0  0  0  0  0  0  0  0  0  0  0  0
   -2.8329    3.8509   -2.2414 C   0  0  0  0  0  0  0  0  0  0  0  0
   -3.4950    3.4436   -1.3164 O   0  0  0  0  0  0  0  0  0  0  0  0
   -3.5104    4.4477   -3.4480 C   0  0  2  0  0  0  0  0  0  0  0  0
   -3.2494    3.8694   -4.3343 H   0  0  0  0  0  0  0  0  0  0  0  0
   -3.0481    5.8949   -3.6288 C   0  0  0  0  0  0  0  0  0  0  0  0
   -1.6516    5.9146   -3.9311 O   0  0  0  0  0  0  0  0  0  0  0  0
   -5.0042    4.4184   -3.2510 C   0  0  0  0  0  0  0  0  0  0  0  0
   -5.5733    5.0820   -2.1803 C   0  0  0  0  0  0  0  0  0  0  0  0
   -6.9440    5.0588   -2.0021 C   0  0  0  0  0  0  0  0  0  0  0  0
   -7.7446    4.3643   -2.8895 C   0  0  0  0  0  0  0  0  0  0  0  0
   -7.1750    3.6963   -3.9573 C   0  0  0  0  0  0  0  0  0  0  0  0
   -5.8048    3.7231   -4.1379 C   0  0  0  0  0  0  0  0  0  0  0  0
    2.2992   -0.0890    0.6612 H   0  0  0  0  0  0  0  0  0  0  0  0
    3.2288    1.4077    0.9140 H   0  0  0  0  0  0  0  0  0  0  0  0
    1.8266    1.0454    1.9488 H   0  0  0  0  0  0  0  0  0  0  0  0
    0.6065    2.9209    2.5328 H   0  0  0  0  0  0  0  0  0  0  0  0
   -0.5833    3.8163    1.5391 H   0  0  0  0  0  0  0  0  0  0  0  0
   -1.7165    1.8556    1.1288 H   0  0  0  0  0  0  0  0  0  0  0  0
   -0.5267    0.9601    2.1226 H   0  0  0  0  0  0  0  0  0  0  0  0
   -0.1968    1.4536   -2.1142 H   0  0  0  0  0  0  0  0  0  0  0  0
   -1.7489    1.2060   -1.2743 H   0  0  0  0  0  0  0  0  0  0  0  0
   -1.5574    3.3810   -0.1467 H   0  0  0  0  0  0  0  0  0  0  0  0
    0.3514    4.8628   -0.5033 H   0  0  0  0  0  0  0  0  0  0  0  0
    1.0828    3.7045   -1.6432 H   0  0  0  0  0  0  0  0  0  0  0  0
   -3.6034    6.3542   -4.4466 H   0  0  0  0  0  0  0  0  0  0  0  0
   -3.2287    6.4516   -2.7092 H   0  0  0  0  0  0  0  0  0  0  0  0
   -1.2894    6.8020   -4.0589 H   0  0  0  0  0  0  0  0  0  0  0  0
   -4.9475    5.6215   -1.4848 H   0  0  0  0  0  0  0  0  0  0  0  0
   -7.3890    5.5810   -1.1680 H   0  0  0  0  0  0  0  0  0  0  0  0
   -8.8152    4.3439   -2.7488 H   0  0  0  0  0  0  0  0  0  0  0  0
   -7.8006    3.1537   -4.6506 H   0  0  0  0  0  0  0  0  0  0  0  0
   -5.3598    3.2012   -4.9722 H   0  0  0  0  0  0  0  0  0  0  0  0
    1.3177    1.6839    0.0000 N   0  3  2  0  0  0  0  0  0  0  0  0
    1.7131    1.6516   -0.9470 H   0  0  0  0  0  0  0  0  0  0  0  0
  1 24  1  0  0  0  0
  1 25  1  0  0  0  0
  1 26  1  0  0  0  0
  1 44  1  0  0  0  0
  2  3  1  1  0  0  0
  2 10  1  0  0  0  0
  2  4  1  0  0  0  0
  2 44  1  0  0  0  0
  4  5  1  0  0  0  0
  4 27  1  0  0  0  0
  4 28  1  0  0  0  0
  5  6  1  0  0  0  0
  5 29  1  0  0  0  0
  5 30  1  0  0  0  0
  6  7  1  6  0  0  0
  6  8  1  0  0  0  0
  6 44  1  0  0  0  0
  8  9  1  0  0  0  0
  8 31  1  0  0  0  0
  8 32  1  0  0  0  0
  9 10  1  0  0  0  0
  9 11  1  0  0  0  0
  9 33  1  1  0  0  0
 10 34  1  0  0  0  0
 10 35  1  0  0  0  0
 11 12  1  0  0  0  0
 12 13  2  0  0  0  0
 12 14  1  0  0  0  0
 14 15  1  6  0  0  0
 14 16  1  0  0  0  0
 14 18  1  0  0  0  0
 16 17  1  0  0  0  0
 16 36  1  0  0  0  0
 16 37  1  0  0  0  0
 17 38  1  0  0  0  0
 18 23  2  0  0  0  0
 18 19  1  0  0  0  0
 19 20  2  0  0  0  0
 19 39  1  0  0  0  0
 20 21  1  0  0  0  0
 20 40  1  0  0  0  0
 21 22  2  0  0  0  0
 21 41  1  0  0  0  0
 22 23  1  0  0  0  0
 22 42  1  0  0  0  0
 23 43  1  0  0  0  0
 44 45  1  6  0  0  0
M  CHG  1  44   1
M  END
$$$$
