ZINC00896870
 OpenBabel08292219463D

 29 30  0  0  1  0  0  0  0  0999 V2000
   -0.0187    1.5258    0.0104 C   0  0  0  0  0  0  0  0  0  0  0  0
    0.0021   -0.0041    0.0020 C   0  0  1  0  0  0  0  0  0  0  0  0
   -1.0204   -0.3816    0.0098 H   0  0  0  0  0  0  0  0  0  0  0  0
    0.7193   -0.4981   -1.2568 C   0  0  1  0  0  0  0  0  0  0  0  0
    1.7288   -0.0878   -1.2853 H   0  0  0  0  0  0  0  0  0  0  0  0
    0.7849   -1.9267   -1.2321 O   0  0  0  0  0  0  0  0  0  0  0  0
    1.4491   -2.4508   -0.0788 C   0  0  0  0  0  0  0  0  0  0  0  0
    0.7332   -1.9604    1.1821 C   0  0  0  0  0  0  0  0  0  0  0  0
    0.7135   -0.4912    1.1919 N   0  3  0  0  0  0  0  0  0  0  0  0
   -0.0410   -0.0493   -2.4781 C   0  0  0  0  0  0  0  0  0  0  0  0
   -1.1669   -0.7409   -2.8842 C   0  0  0  0  0  0  0  0  0  0  0  0
   -1.8643   -0.3292   -4.0044 C   0  0  0  0  0  0  0  0  0  0  0  0
   -1.4360    0.7743   -4.7184 C   0  0  0  0  0  0  0  0  0  0  0  0
   -0.3106    1.4664   -4.3118 C   0  0  0  0  0  0  0  0  0  0  0  0
    0.3843    1.0573   -3.1890 C   0  0  0  0  0  0  0  0  0  0  0  0
    1.0039    1.9031    0.0027 H   0  0  0  0  0  0  0  0  0  0  0  0
   -0.5459    1.8868   -0.8726 H   0  0  0  0  0  0  0  0  0  0  0  0
   -0.5289    1.8773    0.9072 H   0  0  0  0  0  0  0  0  0  0  0  0
    1.4268   -3.5402   -0.1097 H   0  0  0  0  0  0  0  0  0  0  0  0
    2.4835   -2.1074   -0.0670 H   0  0  0  0  0  0  0  0  0  0  0  0
   -0.2895   -2.3375    1.1896 H   0  0  0  0  0  0  0  0  0  0  0  0
    1.2611   -2.3228    2.0642 H   0  0  0  0  0  0  0  0  0  0  0  0
    1.6602   -0.1422    1.1842 H   0  0  0  0  0  0  0  0  0  0  0  0
   -1.5015   -1.6031   -2.3264 H   0  0  0  0  0  0  0  0  0  0  0  0
   -2.7436   -0.8700   -4.3221 H   0  0  0  0  0  0  0  0  0  0  0  0
   -1.9805    1.0955   -5.5941 H   0  0  0  0  0  0  0  0  0  0  0  0
    0.0241    2.3284   -4.8698 H   0  0  0  0  0  0  0  0  0  0  0  0
    1.2614    1.6003   -2.8692 H   0  0  0  0  0  0  0  0  0  0  0  0
    0.2417   -0.1662    2.0225 H   0  0  0  0  0  0  0  0  0  0  0  0
  1  2  1  0  0  0  0
  1 16  1  0  0  0  0
  1 17  1  0  0  0  0
  1 18  1  0  0  0  0
  2  3  1  1  0  0  0
  2  9  1  0  0  0  0
  2  4  1  0  0  0  0
  4  5  1  6  0  0  0
  4  6  1  0  0  0  0
  4 10  1  0  0  0  0
  6  7  1  0  0  0  0
  7  8  1  0  0  0  0
  7 19  1  0  0  0  0
  7 20  1  0  0  0  0
  8  9  1  0  0  0  0
  8 21  1  0  0  0  0
  8 22  1  0  0  0  0
  9 23  1  0  0  0  0
  9 29  1  0  0  0  0
 10 15  2  0  0  0  0
 10 11  1  0  0  0  0
 11 12  2  0  0  0  0
 11 24  1  0  0  0  0
 12 13  1  0  0  0  0
 12 25  1  0  0  0  0
 13 14  2  0  0  0  0
 13 26  1  0  0  0  0
 14 15  1  0  0  0  0
 14 27  1  0  0  0  0
 15 28  1  0  0  0  0
M  CHG  1   9   1
M  END
$$$$
