ZINC00004840
 OpenBabel08292219463D

 28 29  0  0  0  0  0  0  0  0999 V2000
   -2.0048   -5.1025   -1.8704 C   0  0  0  0  0  0  0  0  0  0  0  0
   -1.2139   -4.0474   -1.1410 C   0  0  0  0  0  0  0  0  0  0  0  0
   -1.7196   -2.9078   -0.5837 C   0  0  0  0  0  0  0  0  0  0  0  0
   -0.5908   -2.1910    0.0120 C   0  0  0  0  0  0  0  0  0  0  0  0
    0.4747   -2.9028   -0.2091 N   0  0  0  0  0  0  0  0  0  0  0  0
    0.1034   -4.0660   -0.9216 O   0  0  0  0  0  0  0  0  0  0  0  0
   -3.1304   -2.4816   -0.5823 C   0  0  0  0  0  0  0  0  0  0  0  0
   -3.9754   -3.1743   -1.1163 O   0  0  0  0  0  0  0  0  0  0  0  0
   -3.4841   -1.3242    0.0109 N   0  0  0  0  0  0  0  0  0  0  0  0
   -4.8050   -0.8717   -0.0709 C   0  0  0  0  0  0  0  0  0  0  0  0
   -5.0702    0.4885   -0.1638 C   0  0  0  0  0  0  0  0  0  0  0  0
   -6.3756    0.9320   -0.2448 C   0  0  0  0  0  0  0  0  0  0  0  0
   -7.4181    0.0235   -0.2336 C   0  0  0  0  0  0  0  0  0  0  0  0
   -7.1575   -1.3313   -0.1407 C   0  0  0  0  0  0  0  0  0  0  0  0
   -5.8541   -1.7818   -0.0651 C   0  0  0  0  0  0  0  0  0  0  0  0
   -8.8413    0.5111   -0.3222 C   0  0  0  0  0  0  0  0  0  0  0  0
   -9.2269    0.5829   -1.6651 F   0  0  0  0  0  0  0  0  0  0  0  0
   -9.6817   -0.3771    0.3575 F   0  0  0  0  0  0  0  0  0  0  0  0
   -8.9365    1.7802    0.2588 F   0  0  0  0  0  0  0  0  0  0  0  0
   -1.3345   -5.8967   -2.1991 H   0  0  0  0  0  0  0  0  0  0  0  0
   -2.7597   -5.5174   -1.2024 H   0  0  0  0  0  0  0  0  0  0  0  0
   -2.4924   -4.6567   -2.7374 H   0  0  0  0  0  0  0  0  0  0  0  0
   -0.6347   -1.2480    0.5367 H   0  0  0  0  0  0  0  0  0  0  0  0
   -2.8226   -0.8051    0.4944 H   0  0  0  0  0  0  0  0  0  0  0  0
   -4.2565    1.1985   -0.1722 H   0  0  0  0  0  0  0  0  0  0  0  0
   -6.5825    1.9896   -0.3167 H   0  0  0  0  0  0  0  0  0  0  0  0
   -7.9739   -2.0383   -0.1318 H   0  0  0  0  0  0  0  0  0  0  0  0
   -5.6510   -2.8404    0.0025 H   0  0  0  0  0  0  0  0  0  0  0  0
  1  2  1  0  0  0  0
  1 20  1  0  0  0  0
  1 21  1  0  0  0  0
  1 22  1  0  0  0  0
  2  6  1  0  0  0  0
  2  3  2  0  0  0  0
  3  4  1  0  0  0  0
  3  7  1  0  0  0  0
  4  5  2  0  0  0  0
  4 23  1  0  0  0  0
  5  6  1  0  0  0  0
  7  8  2  0  0  0  0
  7  9  1  0  0  0  0
  9 10  1  0  0  0  0
  9 24  1  0  0  0  0
 10 15  2  0  0  0  0
 10 11  1  0  0  0  0
 11 12  2  0  0  0  0
 11 25  1  0  0  0  0
 12 13  1  0  0  0  0
 12 26  1  0  0  0  0
 13 14  2  0  0  0  0
 13 16  1  0  0  0  0
 14 15  1  0  0  0  0
 14 27  1  0  0  0  0
 15 28  1  0  0  0  0
 16 17  1  0  0  0  0
 16 18  1  0  0  0  0
 16 19  1  0  0  0  0
M  END
$$$$
