ZINC05065160
 OpenBabel08292219463D

 38 40  0  0  1  0  0  0  0  0999 V2000
    3.9932   -0.6756    1.2188 C   0  0  0  0  0  0  0  0  0  0  0  0
    3.0367    0.0083    0.2398 C   0  0  0  0  0  0  0  0  0  0  0  0
    1.4113    1.7883    0.0111 C   0  0  1  0  0  0  0  0  0  0  0  0
    1.8267    1.8254   -0.9960 H   0  0  0  0  0  0  0  0  0  0  0  0
    0.0297    1.0654    0.0028 C   0  0  2  0  0  0  0  0  0  0  0  0
    0.0621   -0.0242    0.0033 H   0  0  0  0  0  0  0  0  0  0  0  0
   -0.7483    1.7237   -1.1772 C   0  0  0  0  0  0  0  0  0  0  0  0
   -1.0646    3.1651   -0.6553 C   0  0  0  0  0  0  0  0  0  0  0  0
   -0.4362    3.2198    0.7707 C   0  0  1  0  0  0  0  0  0  0  0  0
   -0.8096    4.0067    1.4261 H   0  0  0  0  0  0  0  0  0  0  0  0
   -0.6578    1.7394    1.2424 C   0  0  0  0  0  0  0  0  0  0  0  0
    1.1027    3.2151    0.5196 C   0  0  2  0  0  0  0  0  0  0  0  0
    1.6397    3.4122    1.4474 H   0  0  0  0  0  0  0  0  0  0  0  0
    1.4674    4.2361   -0.5271 C   0  0  0  0  0  0  0  0  0  0  0  0
    1.7934    5.5257   -0.1506 C   0  0  0  0  0  0  0  0  0  0  0  0
    2.1330    6.4609   -1.1103 C   0  0  0  0  0  0  0  0  0  0  0  0
    2.1360    6.1095   -2.4473 C   0  0  0  0  0  0  0  0  0  0  0  0
    1.8045    4.8215   -2.8241 C   0  0  0  0  0  0  0  0  0  0  0  0
    1.4704    3.8847   -1.8640 C   0  0  0  0  0  0  0  0  0  0  0  0
    4.7233    0.0490    1.5794 H   0  0  0  0  0  0  0  0  0  0  0  0
    3.4278   -1.0721    2.0621 H   0  0  0  0  0  0  0  0  0  0  0  0
    4.5099   -1.4908    0.7122 H   0  0  0  0  0  0  0  0  0  0  0  0
    2.3066   -0.7162   -0.1208 H   0  0  0  0  0  0  0  0  0  0  0  0
    3.6021    0.4049   -0.6035 H   0  0  0  0  0  0  0  0  0  0  0  0
   -0.1218    1.7671   -2.0682 H   0  0  0  0  0  0  0  0  0  0  0  0
   -1.6652    1.1713   -1.3829 H   0  0  0  0  0  0  0  0  0  0  0  0
   -2.1415    3.3250   -0.6024 H   0  0  0  0  0  0  0  0  0  0  0  0
   -0.6006    3.9082   -1.3038 H   0  0  0  0  0  0  0  0  0  0  0  0
   -1.7126    1.4754    1.3185 H   0  0  0  0  0  0  0  0  0  0  0  0
   -0.1218    1.5338    2.1690 H   0  0  0  0  0  0  0  0  0  0  0  0
    1.7868    5.8014    0.8935 H   0  0  0  0  0  0  0  0  0  0  0  0
    2.3924    7.4670   -0.8159 H   0  0  0  0  0  0  0  0  0  0  0  0
    2.3978    6.8411   -3.1973 H   0  0  0  0  0  0  0  0  0  0  0  0
    1.8068    4.5469   -3.8686 H   0  0  0  0  0  0  0  0  0  0  0  0
    1.2113    2.8785   -2.1585 H   0  0  0  0  0  0  0  0  0  0  0  0
    2.3418    1.1097    0.9327 N   0  3  0  0  0  0  0  0  0  0  0  0
    3.0349    1.7864    1.2732 H   0  0  0  0  0  0  0  0  0  0  0  0
    1.8145    0.7304    1.7278 H   0  0  0  0  0  0  0  0  0  0  0  0
  1  2  1  0  0  0  0
  1 20  1  0  0  0  0
  1 21  1  0  0  0  0
  1 22  1  0  0  0  0
  2 23  1  0  0  0  0
  2 24  1  0  0  0  0
  2 36  1  0  0  0  0
  3  4  1  6  0  0  0
  3 12  1  0  0  0  0
  3  5  1  0  0  0  0
  3 36  1  0  0  0  0
  5  6  1  1  0  0  0
  5 11  1  0  0  0  0
  5  7  1  0  0  0  0
  7  8  1  0  0  0  0
  7 25  1  0  0  0  0
  7 26  1  0  0  0  0
  8  9  1  0  0  0  0
  8 27  1  0  0  0  0
  8 28  1  0  0  0  0
  9 10  1  1  0  0  0
  9 11  1  0  0  0  0
  9 12  1  0  0  0  0
 11 29  1  0  0  0  0
 11 30  1  0  0  0  0
 12 13  1  1  0  0  0
 12 14  1  0  0  0  0
 14 19  2  0  0  0  0
 14 15  1  0  0  0  0
 15 16  2  0  0  0  0
 15 31  1  0  0  0  0
 16 17  1  0  0  0  0
 16 32  1  0  0  0  0
 17 18  2  0  0  0  0
 17 33  1  0  0  0  0
 18 19  1  0  0  0  0
 18 34  1  0  0  0  0
 19 35  1  0  0  0  0
 36 37  1  0  0  0  0
 36 38  1  0  0  0  0
M  CHG  1  36   1
M  END
$$$$
