ZINC01530820
 OpenBabel08292219463D

 50 49  0  0  0  0  0  0  0  0999 V2000
   -0.0735    1.0531    1.3462 C   0  0  0  0  0  0  0  0  0  0  0  0
   -0.6259   -0.3075    1.3868 N   0  3  0  0  0  0  0  0  0  0  0  0
   -0.1369   -0.9989    2.5871 C   0  0  0  0  0  0  0  0  0  0  0  0
   -2.0929   -0.2395    1.4242 C   0  0  0  0  0  0  0  0  0  0  0  0
   -0.2003   -1.0447    0.1895 C   0  0  0  0  0  0  0  0  0  0  0  0
    1.3268   -1.0288    0.0968 C   0  0  0  0  0  0  0  0  0  0  0  0
    1.8770   -1.7990    1.1674 O   0  0  0  0  0  0  0  0  0  0  0  0
    3.2150   -1.8864    1.2303 C   0  0  0  0  0  0  0  0  0  0  0  0
    3.8964   -1.3274    0.4038 O   0  0  0  0  0  0  0  0  0  0  0  0
    3.8672   -2.6816    2.3317 C   0  0  0  0  0  0  0  0  0  0  0  0
    5.3878   -2.6197    2.1738 C   0  0  0  0  0  0  0  0  0  0  0  0
    6.0400   -3.4149    3.2753 C   0  0  0  0  0  0  0  0  0  0  0  0
    5.3586   -3.9739    4.1018 O   0  0  0  0  0  0  0  0  0  0  0  0
    7.3780   -3.5023    3.3382 O   0  0  0  0  0  0  0  0  0  0  0  0
    7.9282   -4.2725    4.4087 C   0  0  0  0  0  0  0  0  0  0  0  0
    9.4553   -4.2566    4.3160 C   0  0  0  0  0  0  0  0  0  0  0  0
    9.9487   -2.9013    4.5949 N   0  3  0  0  0  0  0  0  0  0  0  0
    9.4204   -2.4442    5.8871 C   0  0  0  0  0  0  0  0  0  0  0  0
   11.4169   -2.9150    4.6433 C   0  0  0  0  0  0  0  0  0  0  0  0
    9.5023   -1.9896    3.5332 C   0  0  0  0  0  0  0  0  0  0  0  0
    1.0149    1.0026    1.3184 H   0  0  0  0  0  0  0  0  0  0  0  0
   -0.4364    1.5661    0.4555 H   0  0  0  0  0  0  0  0  0  0  0  0
   -0.3893    1.6000    2.2346 H   0  0  0  0  0  0  0  0  0  0  0  0
   -0.6282   -0.5875    3.4689 H   0  0  0  0  0  0  0  0  0  0  0  0
   -0.3605   -2.0630    2.5099 H   0  0  0  0  0  0  0  0  0  0  0  0
    0.9406   -0.8594    2.6732 H   0  0  0  0  0  0  0  0  0  0  0  0
   -2.4557    0.2735    0.5336 H   0  0  0  0  0  0  0  0  0  0  0  0
   -2.5027   -1.2491    1.4543 H   0  0  0  0  0  0  0  0  0  0  0  0
   -2.4087    0.3074    2.3126 H   0  0  0  0  0  0  0  0  0  0  0  0
   -0.5497   -2.0752    0.2540 H   0  0  0  0  0  0  0  0  0  0  0  0
   -0.6231   -0.5725   -0.6973 H   0  0  0  0  0  0  0  0  0  0  0  0
    1.6374   -1.4572   -0.8561 H   0  0  0  0  0  0  0  0  0  0  0  0
    1.6844   -0.0015    0.1671 H   0  0  0  0  0  0  0  0  0  0  0  0
    3.5849   -2.2634    3.2979 H   0  0  0  0  0  0  0  0  0  0  0  0
    3.5380   -3.7191    2.2747 H   0  0  0  0  0  0  0  0  0  0  0  0
    5.6701   -3.0378    1.2076 H   0  0  0  0  0  0  0  0  0  0  0  0
    5.7170   -1.5821    2.2308 H   0  0  0  0  0  0  0  0  0  0  0  0
    7.6176   -3.8441    5.3616 H   0  0  0  0  0  0  0  0  0  0  0  0
    7.5706   -5.2998    4.3384 H   0  0  0  0  0  0  0  0  0  0  0  0
    9.8709   -4.9518    5.0455 H   0  0  0  0  0  0  0  0  0  0  0  0
    9.7616   -4.5557    3.3136 H   0  0  0  0  0  0  0  0  0  0  0  0
    9.7517   -3.1207    6.6750 H   0  0  0  0  0  0  0  0  0  0  0  0
    9.7865   -1.4386    6.0941 H   0  0  0  0  0  0  0  0  0  0  0  0
    8.3311   -2.4340    5.8512 H   0  0  0  0  0  0  0  0  0  0  0  0
   11.8089   -3.2543    3.6845 H   0  0  0  0  0  0  0  0  0  0  0  0
   11.7830   -1.9094    4.8503 H   0  0  0  0  0  0  0  0  0  0  0  0
   11.7481   -3.5916    5.4311 H   0  0  0  0  0  0  0  0  0  0  0  0
    8.4201   -1.8710    3.5873 H   0  0  0  0  0  0  0  0  0  0  0  0
    9.9811   -1.0189    3.6627 H   0  0  0  0  0  0  0  0  0  0  0  0
    9.7745   -2.4022    2.5617 H   0  0  0  0  0  0  0  0  0  0  0  0
  1  2  1  0  0  0  0
  1 21  1  0  0  0  0
  1 22  1  0  0  0  0
  1 23  1  0  0  0  0
  2  3  1  0  0  0  0
  2  4  1  0  0  0  0
  2  5  1  0  0  0  0
  3 24  1  0  0  0  0
  3 25  1  0  0  0  0
  3 26  1  0  0  0  0
  4 27  1  0  0  0  0
  4 28  1  0  0  0  0
  4 29  1  0  0  0  0
  5  6  1  0  0  0  0
  5 30  1  0  0  0  0
  5 31  1  0  0  0  0
  6  7  1  0  0  0  0
  6 32  1  0  0  0  0
  6 33  1  0  0  0  0
  7  8  1  0  0  0  0
  8  9  2  0  0  0  0
  8 10  1  0  0  0  0
 10 11  1  0  0  0  0
 10 34  1  0  0  0  0
 10 35  1  0  0  0  0
 11 12  1  0  0  0  0
 11 36  1  0  0  0  0
 11 37  1  0  0  0  0
 12 13  2  0  0  0  0
 12 14  1  0  0  0  0
 14 15  1  0  0  0  0
 15 16  1  0  0  0  0
 15 38  1  0  0  0  0
 15 39  1  0  0  0  0
 16 17  1  0  0  0  0
 16 40  1  0  0  0  0
 16 41  1  0  0  0  0
 17 18  1  0  0  0  0
 17 19  1  0  0  0  0
 17 20  1  0  0  0  0
 18 42  1  0  0  0  0
 18 43  1  0  0  0  0
 18 44  1  0  0  0  0
 19 45  1  0  0  0  0
 19 46  1  0  0  0  0
 19 47  1  0  0  0  0
 20 48  1  0  0  0  0
 20 49  1  0  0  0  0
 20 50  1  0  0  0  0
M  CHG  2   2   1  17   1
M  END
$$$$
