ZINC03830954
 OpenBabel08292219463D

 51 51  0  0  1  0  0  0  0  0999 V2000
   -0.4531    1.3736  -12.3658 C   0  0  0  0  0  0  0  0  0  0  0  0
   -1.1139    1.8291  -11.0632 C   0  0  0  0  0  0  0  0  0  0  0  0
   -0.3619    1.3138   -9.9331 O   0  0  0  0  0  0  0  0  0  0  0  0
   -0.8131    1.6253   -8.7079 C   0  0  0  0  0  0  0  0  0  0  0  0
   -1.8037    2.3059   -8.5839 O   0  0  0  0  0  0  0  0  0  0  0  0
   -0.0843    1.1261   -7.4870 C   0  0  0  0  0  0  0  0  0  0  0  0
   -0.8004    1.6195   -6.2282 C   0  0  0  0  0  0  0  0  0  0  0  0
   -0.0604    1.1126   -4.9886 C   0  0  0  0  0  0  0  0  0  0  0  0
   -0.7766    1.6061   -3.7298 C   0  0  0  0  0  0  0  0  0  0  0  0
   -0.0366    1.0992   -2.4903 C   0  0  0  0  0  0  0  0  0  0  0  0
   -0.7527    1.5927   -1.2315 C   0  0  0  0  0  0  0  0  0  0  0  0
   -0.0127    1.0858    0.0080 C   0  0  0  0  0  0  0  0  0  0  0  0
   -0.7288    1.5792    1.2668 C   0  0  0  0  0  0  0  0  0  0  0  0
    0.0111    1.0724    2.5063 C   0  0  2  0  0  0  0  0  0  0  0  0
    1.0569    1.3753    2.4543 H   0  0  0  0  0  0  0  0  0  0  0  0
   -0.0755   -0.4541    2.5634 C   0  0  0  0  0  0  0  0  0  0  0  0
   -0.6205    1.6580    3.7429 C   0  0  0  0  0  0  0  0  0  0  0  0
   -1.9511    1.4093    4.0235 C   0  0  0  0  0  0  0  0  0  0  0  0
   -2.5304    1.9460    5.1579 C   0  0  0  0  0  0  0  0  0  0  0  0
   -1.7793    2.7316    6.0124 C   0  0  0  0  0  0  0  0  0  0  0  0
   -0.4490    2.9806    5.7324 C   0  0  0  0  0  0  0  0  0  0  0  0
    0.1323    2.4394    4.6001 C   0  0  0  0  0  0  0  0  0  0  0  0
    2.1509    2.8099    4.1795 I   0  0  0  0  0  0  0  0  0  0  0  0
    0.5685    1.7515  -12.4065 H   0  0  0  0  0  0  0  0  0  0  0  0
   -0.4393    0.2844  -12.4047 H   0  0  0  0  0  0  0  0  0  0  0  0
   -1.0176    1.7604  -13.2142 H   0  0  0  0  0  0  0  0  0  0  0  0
   -2.1354    1.4511  -11.0226 H   0  0  0  0  0  0  0  0  0  0  0  0
   -1.1276    2.9183  -11.0243 H   0  0  0  0  0  0  0  0  0  0  0  0
    0.9383    1.5033   -7.4947 H   0  0  0  0  0  0  0  0  0  0  0  0
   -0.0695    0.0362   -7.4930 H   0  0  0  0  0  0  0  0  0  0  0  0
   -1.8230    1.2422   -6.2204 H   0  0  0  0  0  0  0  0  0  0  0  0
   -0.8152    2.7094   -6.2222 H   0  0  0  0  0  0  0  0  0  0  0  0
    0.9622    1.4899   -4.9964 H   0  0  0  0  0  0  0  0  0  0  0  0
   -0.0456    0.0228   -4.9946 H   0  0  0  0  0  0  0  0  0  0  0  0
   -1.7991    1.2288   -3.7221 H   0  0  0  0  0  0  0  0  0  0  0  0
   -0.7913    2.6960   -3.7239 H   0  0  0  0  0  0  0  0  0  0  0  0
    0.9860    1.4765   -2.4981 H   0  0  0  0  0  0  0  0  0  0  0  0
   -0.0218    0.0093   -2.4963 H   0  0  0  0  0  0  0  0  0  0  0  0
   -1.7753    1.2154   -1.2238 H   0  0  0  0  0  0  0  0  0  0  0  0
   -0.7675    2.6825   -1.2255 H   0  0  0  0  0  0  0  0  0  0  0  0
    0.0021   -0.0041    0.0020 H   0  0  0  0  0  0  0  0  0  0  0  0
    1.0099    1.4631    0.0003 H   0  0  0  0  0  0  0  0  0  0  0  0
   -0.7436    2.6691    1.2728 H   0  0  0  0  0  0  0  0  0  0  0  0
   -1.7514    1.2020    1.2746 H   0  0  0  0  0  0  0  0  0  0  0  0
    0.4517   -0.8152    3.4465 H   0  0  0  0  0  0  0  0  0  0  0  0
   -1.1213   -0.7569    2.6154 H   0  0  0  0  0  0  0  0  0  0  0  0
    0.3814   -0.8776    1.6690 H   0  0  0  0  0  0  0  0  0  0  0  0
   -2.5382    0.7959    3.3560 H   0  0  0  0  0  0  0  0  0  0  0  0
   -3.5699    1.7513    5.3770 H   0  0  0  0  0  0  0  0  0  0  0  0
   -2.2323    3.1511    6.8985 H   0  0  0  0  0  0  0  0  0  0  0  0
    0.1375    3.5946    6.3998 H   0  0  0  0  0  0  0  0  0  0  0  0
  1  2  1  0  0  0  0
  1 24  1  0  0  0  0
  1 25  1  0  0  0  0
  1 26  1  0  0  0  0
  2  3  1  0  0  0  0
  2 27  1  0  0  0  0
  2 28  1  0  0  0  0
  3  4  1  0  0  0  0
  4  5  2  0  0  0  0
  4  6  1  0  0  0  0
  6  7  1  0  0  0  0
  6 29  1  0  0  0  0
  6 30  1  0  0  0  0
  7  8  1  0  0  0  0
  7 31  1  0  0  0  0
  7 32  1  0  0  0  0
  8  9  1  0  0  0  0
  8 33  1  0  0  0  0
  8 34  1  0  0  0  0
  9 10  1  0  0  0  0
  9 35  1  0  0  0  0
  9 36  1  0  0  0  0
 10 11  1  0  0  0  0
 10 37  1  0  0  0  0
 10 38  1  0  0  0  0
 11 12  1  0  0  0  0
 11 39  1  0  0  0  0
 11 40  1  0  0  0  0
 12 13  1  0  0  0  0
 12 41  1  0  0  0  0
 12 42  1  0  0  0  0
 13 14  1  0  0  0  0
 13 43  1  0  0  0  0
 13 44  1  0  0  0  0
 14 15  1  6  0  0  0
 14 16  1  0  0  0  0
 14 17  1  0  0  0  0
 16 45  1  0  0  0  0
 16 46  1  0  0  0  0
 16 47  1  0  0  0  0
 17 22  2  0  0  0  0
 17 18  1  0  0  0  0
 18 19  2  0  0  0  0
 18 48  1  0  0  0  0
 19 20  1  0  0  0  0
 19 49  1  0  0  0  0
 20 21  2  0  0  0  0
 20 50  1  0  0  0  0
 21 22  1  0  0  0  0
 21 51  1  0  0  0  0
 22 23  1  0  0  0  0
M  END
$$$$
