ZINC00403533
 OpenBabel08292219463D

 45 49  0  0  1  0  0  0  0  0999 V2000
   -1.1208   -0.7061   -1.9649 C   0  0  0  0  0  0  0  0  0  0  0  0
   -2.6081    0.5284   -0.5091 C   0  0  0  0  0  0  0  0  0  0  0  0
   -3.3150    1.8739   -0.3049 C   0  0  0  0  0  0  0  0  0  0  0  0
   -2.2518    2.9598   -0.1553 C   0  0  2  0  0  0  0  0  0  0  0  0
   -1.3317    2.6166    0.9900 C   0  0  0  0  0  0  0  0  0  0  0  0
   -0.1970    1.8438    0.9269 C   0  0  0  0  0  0  0  0  0  0  0  0
    0.4633    1.6503    2.1272 C   0  0  0  0  0  0  0  0  0  0  0  0
    0.0105    2.2693    3.2810 C   0  0  0  0  0  0  0  0  0  0  0  0
   -1.0917    3.1207    3.3081 C   0  0  0  0  0  0  0  0  0  0  0  0
   -1.7706    3.3134    2.1063 C   0  0  0  0  0  0  0  0  0  0  0  0
   -2.8115    4.1099    1.7812 O   0  0  0  0  0  0  0  0  0  0  0  0
   -2.8467    4.2745    0.3317 C   0  0  1  0  0  0  0  0  0  0  0  0
   -3.7577    4.3945   -0.0628 H   0  0  0  0  0  0  0  0  0  0  0  0
   -1.9768    5.4491   -0.0056 C   0  0  0  0  0  0  0  0  0  0  0  0
   -2.0534    6.4384    0.6827 O   0  0  0  0  0  0  0  0  0  0  0  0
   -1.0171    5.4526   -1.1573 C   0  0  0  0  0  0  0  0  0  0  0  0
   -0.3145    4.0971   -1.2549 C   0  0  0  0  0  0  0  0  0  0  0  0
   -1.3892    2.9956   -1.3848 C   0  0  1  0  0  0  0  0  0  0  0  0
   -0.6969    1.6374   -1.5323 C   0  0  1  0  0  0  0  0  0  0  0  0
   -0.1122    1.6585   -2.4519 H   0  0  0  0  0  0  0  0  0  0  0  0
    0.2433    1.2912   -0.3896 C   0  0  0  0  0  0  0  0  0  0  0  0
   -2.1967    3.2491   -2.5362 O   0  0  0  0  0  0  0  0  0  0  0  0
   -1.4850    3.7374    4.4546 O   0  0  0  0  0  0  0  0  0  0  0  0
   -0.7167    3.4729    5.6301 C   0  0  0  0  0  0  0  0  0  0  0  0
   -0.5583   -1.0436   -1.0943 H   0  0  0  0  0  0  0  0  0  0  0  0
   -1.9050   -1.4279   -2.1929 H   0  0  0  0  0  0  0  0  0  0  0  0
   -0.4495   -0.6170   -2.8190 H   0  0  0  0  0  0  0  0  0  0  0  0
   -3.3529   -0.2521   -0.6647 H   0  0  0  0  0  0  0  0  0  0  0  0
   -2.0168    0.2920    0.3755 H   0  0  0  0  0  0  0  0  0  0  0  0
   -3.9440    2.0926   -1.1678 H   0  0  0  0  0  0  0  0  0  0  0  0
   -3.9282    1.8334    0.5953 H   0  0  0  0  0  0  0  0  0  0  0  0
    1.3352    1.0140    2.1650 H   0  0  0  0  0  0  0  0  0  0  0  0
    0.5382    2.0828    4.2047 H   0  0  0  0  0  0  0  0  0  0  0  0
   -1.5161    5.6259   -2.0064 H   0  0  0  0  0  0  0  0  0  0  0  0
   -0.2739    6.2356   -1.0067 H   0  0  0  0  0  0  0  0  0  0  0  0
    0.3396    4.0864   -2.1267 H   0  0  0  0  0  0  0  0  0  0  0  0
    0.2744    3.9250   -0.3539 H   0  0  0  0  0  0  0  0  0  0  0  0
    0.3097    0.2062   -0.3085 H   0  0  0  0  0  0  0  0  0  0  0  0
    1.2332    1.6848   -0.6202 H   0  0  0  0  0  0  0  0  0  0  0  0
   -1.7018    3.2710   -3.3666 H   0  0  0  0  0  0  0  0  0  0  0  0
   -0.7424    2.4053    5.8482 H   0  0  0  0  0  0  0  0  0  0  0  0
    0.3147    3.7859    5.4681 H   0  0  0  0  0  0  0  0  0  0  0  0
   -1.1365    4.0257    6.4705 H   0  0  0  0  0  0  0  0  0  0  0  0
   -1.7456    0.6059   -1.7103 N   0  3  1  0  0  0  0  0  0  0  0  0
   -2.3260    0.8605   -2.5181 H   0  0  0  0  0  0  0  0  0  0  0  0
  1 25  1  0  0  0  0
  1 26  1  0  0  0  0
  1 27  1  0  0  0  0
  1 44  1  0  0  0  0
  2  3  1  0  0  0  0
  2 28  1  0  0  0  0
  2 29  1  0  0  0  0
  2 44  1  0  0  0  0
  3  4  1  0  0  0  0
  3 30  1  0  0  0  0
  3 31  1  0  0  0  0
  4 12  1  0  0  0  0
  4 18  1  0  0  0  0
  4  5  1  1  0  0  0
  5 10  2  0  0  0  0
  5  6  1  0  0  0  0
  6 21  1  0  0  0  0
  6  7  2  0  0  0  0
  7  8  1  0  0  0  0
  7 32  1  0  0  0  0
  8  9  2  0  0  0  0
  8 33  1  0  0  0  0
  9 10  1  0  0  0  0
  9 23  1  0  0  0  0
 10 11  1  0  0  0  0
 11 12  1  0  0  0  0
 12 13  1  6  0  0  0
 12 14  1  0  0  0  0
 14 15  2  0  0  0  0
 14 16  1  0  0  0  0
 16 17  1  0  0  0  0
 16 34  1  0  0  0  0
 16 35  1  0  0  0  0
 17 18  1  0  0  0  0
 17 36  1  0  0  0  0
 17 37  1  0  0  0  0
 18 19  1  0  0  0  0
 18 22  1  6  0  0  0
 19 20  1  6  0  0  0
 19 21  1  0  0  0  0
 19 44  1  0  0  0  0
 21 38  1  0  0  0  0
 21 39  1  0  0  0  0
 22 40  1  0  0  0  0
 23 24  1  0  0  0  0
 24 41  1  0  0  0  0
 24 42  1  0  0  0  0
 24 43  1  0  0  0  0
 44 45  1  6  0  0  0
M  CHG  1  44   1
M  END
$$$$
