ZINC12503291
 OpenBabel08292219463D

 48 52  0  0  1  0  0  0  0  0999 V2000
   -0.0206    1.4610    0.1065 C   0  0  0  0  0  0  0  0  0  0  0  0
    0.0021   -0.0041    0.0020 N   0  3  0  0  0  0  0  0  0  0  0  0
    0.7877   -0.4322   -1.1859 C   0  0  2  0  0  0  0  0  0  0  0  0
    0.5467    0.1537   -2.0728 H   0  0  0  0  0  0  0  0  0  0  0  0
    0.5205   -1.9317   -1.3925 C   0  0  0  0  0  0  0  0  0  0  0  0
    1.0610   -2.7023   -0.1845 C   0  0  1  0  0  0  0  0  0  0  0  0
    0.4691   -2.1245    1.1042 C   0  0  0  0  0  0  0  0  0  0  0  0
    0.7480   -0.5989    1.1428 C   0  0  1  0  0  0  0  0  0  0  0  0
    0.4677   -0.1524    2.0968 H   0  0  0  0  0  0  0  0  0  0  0  0
    2.2346   -0.3652    0.7877 C   0  0  2  0  0  0  0  0  0  0  0  0
    2.8178    0.2903    1.4345 H   0  0  0  0  0  0  0  0  0  0  0  0
    2.2608   -0.2554   -0.7510 C   0  0  1  0  0  0  0  0  0  0  0  0
    2.8642    0.4838   -1.2778 H   0  0  0  0  0  0  0  0  0  0  0  0
    2.8933   -1.3469   -0.0151 O   0  0  0  0  0  0  0  0  0  0  0  0
    0.6983   -4.0798   -0.2983 O   0  0  0  0  0  0  0  0  0  0  0  0
    1.5315   -4.9769    0.2519 C   0  0  0  0  0  0  0  0  0  0  0  0
    2.5356   -4.6049    0.8116 O   0  0  0  0  0  0  0  0  0  0  0  0
    1.2146   -6.4480    0.1715 C   0  0  1  0  0  0  0  0  0  0  0  0
    2.4905   -7.2432    0.2762 C   0  0  0  0  0  0  0  0  0  0  0  0
    3.3232   -7.6547   -0.7109 C   0  0  0  0  0  0  0  0  0  0  0  0
    4.4509   -8.3812   -0.3772 C   0  0  0  0  0  0  0  0  0  0  0  0
    4.6906   -8.6605    0.9273 C   0  0  0  0  0  0  0  0  0  0  0  0
    3.3014   -7.8808    1.7333 S   0  0  0  0  0  0  0  0  0  0  0  0
    0.2930   -6.8258    1.3024 C   0  0  0  0  0  0  0  0  0  0  0  0
   -1.0621   -6.8325    1.3333 C   0  0  0  0  0  0  0  0  0  0  0  0
   -1.7043   -7.2218    2.4938 C   0  0  0  0  0  0  0  0  0  0  0  0
   -0.9599   -7.5855    3.5666 C   0  0  0  0  0  0  0  0  0  0  0  0
    0.7026   -7.3884    2.9465 S   0  0  0  0  0  0  0  0  0  0  0  0
    0.5782   -6.7307   -1.0763 O   0  0  0  0  0  0  0  0  0  0  0  0
   -1.3647   -0.5392   -0.0576 C   0  0  0  0  0  0  0  0  0  0  0  0
    1.0007    1.8418    0.0974 H   0  0  0  0  0  0  0  0  0  0  0  0
   -0.5710    1.8770   -0.7373 H   0  0  0  0  0  0  0  0  0  0  0  0
   -0.5083    1.7514    1.0371 H   0  0  0  0  0  0  0  0  0  0  0  0
   -0.5521   -2.1022   -1.4842 H   0  0  0  0  0  0  0  0  0  0  0  0
    1.0246   -2.2711   -2.2974 H   0  0  0  0  0  0  0  0  0  0  0  0
    2.1472   -2.6155   -0.1554 H   0  0  0  0  0  0  0  0  0  0  0  0
   -0.6058   -2.3039    1.1247 H   0  0  0  0  0  0  0  0  0  0  0  0
    0.9368   -2.6003    1.9662 H   0  0  0  0  0  0  0  0  0  0  0  0
    3.1087   -7.4189   -1.7428 H   0  0  0  0  0  0  0  0  0  0  0  0
    5.1306   -8.7214   -1.1444 H   0  0  0  0  0  0  0  0  0  0  0  0
    5.5112   -9.2089    1.3658 H   0  0  0  0  0  0  0  0  0  0  0  0
   -1.6316   -6.5376    0.4643 H   0  0  0  0  0  0  0  0  0  0  0  0
   -2.7830   -7.2357    2.5451 H   0  0  0  0  0  0  0  0  0  0  0  0
   -1.2875   -7.9134    4.5421 H   0  0  0  0  0  0  0  0  0  0  0  0
    1.1152   -6.5118   -1.8502 H   0  0  0  0  0  0  0  0  0  0  0  0
   -1.8827   -0.1175   -0.9190 H   0  0  0  0  0  0  0  0  0  0  0  0
   -1.3262   -1.6244   -0.1522 H   0  0  0  0  0  0  0  0  0  0  0  0
   -1.8993   -0.2727    0.8541 H   0  0  0  0  0  0  0  0  0  0  0  0
  1  2  1  0  0  0  0
  1 31  1  0  0  0  0
  1 32  1  0  0  0  0
  1 33  1  0  0  0  0
  2  8  1  0  0  0  0
  2  3  1  0  0  0  0
  2 30  1  0  0  0  0
  3  4  1  6  0  0  0
  3 12  1  0  0  0  0
  3  5  1  0  0  0  0
  5  6  1  0  0  0  0
  5 34  1  0  0  0  0
  5 35  1  0  0  0  0
  6  7  1  0  0  0  0
  6 15  1  0  0  0  0
  6 36  1  1  0  0  0
  7  8  1  0  0  0  0
  7 37  1  0  0  0  0
  7 38  1  0  0  0  0
  8  9  1  1  0  0  0
  8 10  1  0  0  0  0
 10 11  1  1  0  0  0
 10 14  1  0  0  0  0
 10 12  1  0  0  0  0
 12 13  1  6  0  0  0
 12 14  1  0  0  0  0
 15 16  1  0  0  0  0
 16 17  2  0  0  0  0
 18 16  1  1  0  0  0
 18 19  1  0  0  0  0
 18 24  1  0  0  0  0
 18 29  1  0  0  0  0
 19 23  1  0  0  0  0
 19 20  2  0  0  0  0
 20 21  1  0  0  0  0
 20 39  1  0  0  0  0
 21 22  2  0  0  0  0
 21 40  1  0  0  0  0
 22 23  1  0  0  0  0
 22 41  1  0  0  0  0
 24 28  1  0  0  0  0
 24 25  2  0  0  0  0
 25 26  1  0  0  0  0
 25 42  1  0  0  0  0
 26 27  2  0  0  0  0
 26 43  1  0  0  0  0
 27 28  1  0  0  0  0
 27 44  1  0  0  0  0
 29 45  1  0  0  0  0
 30 46  1  0  0  0  0
 30 47  1  0  0  0  0
 30 48  1  0  0  0  0
M  CHG  1   2   1
M  END
$$$$
