ZINC18153101
 OpenBabel08292219463D

 40 41  0  0  0  0  0  0  0  0999 V2000
    1.0065   -0.4421    1.0799 C   0  0  0  0  0  0  0  0  0  0  0  0
    2.2434    0.1681    1.0636 C   0  0  0  0  0  0  0  0  0  0  0  0
    2.5436    1.1045    0.0884 C   0  0  0  0  0  0  0  0  0  0  0  0
    1.6046    1.4340   -0.8748 C   0  0  0  0  0  0  0  0  0  0  0  0
    0.3646    0.8300   -0.8678 C   0  0  0  0  0  0  0  0  0  0  0  0
    0.0571   -0.1143    0.1119 C   0  0  0  0  0  0  0  0  0  0  0  0
   -1.2726   -0.7665    0.1241 C   0  0  0  0  0  0  0  0  0  0  0  0
   -1.3750   -2.2343    0.2756 C   0  0  0  0  0  0  0  0  0  0  0  0
   -1.9589   -2.7822    1.4187 C   0  0  0  0  0  0  0  0  0  0  0  0
   -2.0516   -4.1530    1.5543 C   0  0  0  0  0  0  0  0  0  0  0  0
   -1.5664   -4.9875    0.5586 C   0  0  0  0  0  0  0  0  0  0  0  0
   -0.9864   -4.4552   -0.5762 C   0  0  0  0  0  0  0  0  0  0  0  0
   -0.8919   -3.0806   -0.7294 C   0  0  0  0  0  0  0  0  0  0  0  0
   -0.3277   -2.5570   -1.8478 O   0  0  0  0  0  0  0  0  0  0  0  0
   -2.6165   -4.6833    2.6611 F   0  0  0  0  0  0  0  0  0  0  0  0
   -2.3528   -0.0469    0.0013 N   0  0  0  0  0  4  0  0  0  0  0  0
   -2.2643    1.4153    0.0152 C   0  0  0  0  0  0  0  0  0  0  0  0
   -2.7219    1.9668   -1.3366 C   0  0  0  0  0  0  0  0  0  0  0  0
   -2.6295    3.4940   -1.3220 C   0  0  0  0  0  0  0  0  0  0  0  0
   -3.0802    4.0372   -2.6535 C   0  0  0  0  0  0  0  0  0  0  0  0
   -3.4399    3.2777   -3.5280 O   0  0  0  0  0  0  0  0  0  0  0  0
   -3.0835    5.3670   -2.8726 N   0  0  0  0  0  0  0  0  0  0  0  0
    4.1023    1.8686    0.0737 Cl  0  0  0  0  0  0  0  0  0  0  0  0
    0.7750   -1.1755    1.8382 H   0  0  0  0  0  0  0  0  0  0  0  0
    2.9791   -0.0847    1.8128 H   0  0  0  0  0  0  0  0  0  0  0  0
    1.8437    2.1655   -1.6325 H   0  0  0  0  0  0  0  0  0  0  0  0
   -0.3670    1.0879   -1.6192 H   0  0  0  0  0  0  0  0  0  0  0  0
   -2.3374   -2.1350    2.1960 H   0  0  0  0  0  0  0  0  0  0  0  0
   -1.6422   -6.0589    0.6713 H   0  0  0  0  0  0  0  0  0  0  0  0
   -0.6100   -5.1108   -1.3475 H   0  0  0  0  0  0  0  0  0  0  0  0
   -2.9041    1.8106    0.8043 H   0  0  0  0  0  0  0  0  0  0  0  0
   -1.2327    1.7152    0.1996 H   0  0  0  0  0  0  0  0  0  0  0  0
   -2.0821    1.5716   -2.1256 H   0  0  0  0  0  0  0  0  0  0  0  0
   -3.7535    1.6670   -1.5210 H   0  0  0  0  0  0  0  0  0  0  0  0
   -3.2693    3.8892   -0.5330 H   0  0  0  0  0  0  0  0  0  0  0  0
   -1.5979    3.7938   -1.1377 H   0  0  0  0  0  0  0  0  0  0  0  0
   -2.7959    5.9745   -2.1732 H   0  0  0  0  0  0  0  0  0  0  0  0
   -3.3736    5.7167   -3.7296 H   0  0  0  0  0  0  0  0  0  0  0  0
    0.6271   -2.4197   -1.7794 H   0  0  0  0  0  0  0  0  0  0  0  0
   -3.2150   -0.4797   -0.0992 H   0  0  0  0  0  0  0  0  0  0  0  0
  1  6  2  0  0  0  0
  1  2  1  0  0  0  0
  1 24  1  0  0  0  0
  2  3  2  0  0  0  0
  2 25  1  0  0  0  0
  3  4  1  0  0  0  0
  3 23  1  0  0  0  0
  4  5  2  0  0  0  0
  4 26  1  0  0  0  0
  5  6  1  0  0  0  0
  5 27  1  0  0  0  0
  6  7  1  0  0  0  0
  7  8  1  0  0  0  0
  7 16  2  0  0  0  0
  8 13  2  0  0  0  0
  8  9  1  0  0  0  0
  9 10  2  0  0  0  0
  9 28  1  0  0  0  0
 10 11  1  0  0  0  0
 10 15  1  0  0  0  0
 11 12  2  0  0  0  0
 11 29  1  0  0  0  0
 12 13  1  0  0  0  0
 12 30  1  0  0  0  0
 13 14  1  0  0  0  0
 14 39  1  0  0  0  0
 16 17  1  0  0  0  0
 16 40  1  0  0  0  0
 17 18  1  0  0  0  0
 17 31  1  0  0  0  0
 17 32  1  0  0  0  0
 18 19  1  0  0  0  0
 18 33  1  0  0  0  0
 18 34  1  0  0  0  0
 19 20  1  0  0  0  0
 19 35  1  0  0  0  0
 19 36  1  0  0  0  0
 20 21  2  0  0  0  0
 20 22  1  0  0  0  0
 22 37  1  0  0  0  0
 22 38  1  0  0  0  0
M  END
$$$$
