ZINC96006013
 OpenBabel08292219463D

139144  0  0  1  0  0  0  0  0999 V2000
   -3.6235   -6.7518   -4.5360 C   0  0  0  0  0  0  0  0  0  0  0  0
   -2.3699   -6.0850   -4.1596 N   0  3  2  0  0  0  0  0  0  0  0  0
   -1.7942   -6.7487   -2.9799 C   0  0  0  0  0  0  0  0  0  0  0  0
   -2.8986   -6.9369   -1.9391 C   0  0  0  0  0  0  0  0  0  0  0  0
   -3.6112   -5.6284   -1.7087 C   0  0  0  0  0  0  0  0  0  0  0  0
   -4.3989   -5.4931   -0.5756 C   0  0  0  0  0  0  0  0  0  0  0  0
   -5.0715   -4.3093   -0.3294 C   0  0  0  0  0  0  0  0  0  0  0  0
   -4.9550   -3.2511   -1.2263 C   0  0  0  0  0  0  0  0  0  0  0  0
   -4.1670   -3.3914   -2.3545 C   0  0  0  0  0  0  0  0  0  0  0  0
   -3.4927   -4.5797   -2.5962 C   0  0  0  0  0  0  0  0  0  0  0  0
   -2.6395   -4.6819   -3.8333 C   0  0  1  0  0  0  0  0  0  0  0  0
   -3.1596   -4.2123   -4.6682 H   0  0  0  0  0  0  0  0  0  0  0  0
   -1.3141   -3.9562   -3.5934 C   0  0  0  0  0  0  0  0  0  0  0  0
   -1.5780   -2.4896   -3.3683 C   0  0  0  0  0  0  0  0  0  0  0  0
   -1.7577   -1.6472   -4.4497 C   0  0  0  0  0  0  0  0  0  0  0  0
   -2.0001   -0.3011   -4.2484 C   0  0  0  0  0  0  0  0  0  0  0  0
   -2.0637    0.2064   -2.9606 C   0  0  0  0  0  0  0  0  0  0  0  0
   -1.8832   -0.6416   -1.8721 C   0  0  0  0  0  0  0  0  0  0  0  0
   -1.6454   -1.9907   -2.0808 C   0  0  0  0  0  0  0  0  0  0  0  0
   -1.9447   -0.1483   -0.6063 O   0  0  0  0  0  0  0  0  0  0  0  0
   -1.7498   -1.0770    0.4621 C   0  0  0  0  0  0  0  0  0  0  0  0
   -2.3015    1.5304   -2.7608 O   0  0  0  0  0  0  0  0  0  0  0  0
   -2.4764    2.3409   -3.9247 C   0  0  0  0  0  0  0  0  0  0  0  0
   -5.6137   -2.0842   -0.9945 O   0  0  0  0  0  0  0  0  0  0  0  0
   -5.4469   -1.0425   -1.9584 C   0  0  0  0  0  0  0  0  0  0  0  0
   -5.8428   -4.1803    0.7832 O   0  0  0  0  0  0  0  0  0  0  0  0
   -5.9147   -5.3086    1.6572 C   0  0  0  0  0  0  0  0  0  0  0  0
   -1.4203   -6.1559   -5.2782 C   0  0  0  0  0  0  0  0  0  0  0  0
   -2.0348   -5.4912   -6.5117 C   0  0  0  0  0  0  0  0  0  0  0  0
   -1.0150   -5.4495   -7.6204 C   0  0  0  0  0  0  0  0  0  0  0  0
    0.0573   -5.9870   -7.4754 O   0  0  0  0  0  0  0  0  0  0  0  0
   -1.2979   -4.8151   -8.7690 O   0  0  0  0  0  0  0  0  0  0  0  0
   -0.2847   -4.8152   -9.7767 C   0  0  0  0  0  0  0  0  0  0  0  0
   -0.7854   -4.0501  -11.0034 C   0  0  0  0  0  0  0  0  0  0  0  0
    0.2994   -4.0502  -12.0824 C   0  0  0  0  0  0  0  0  0  0  0  0
   -0.2013   -3.2850  -13.3090 C   0  0  0  0  0  0  0  0  0  0  0  0
    0.8835   -3.2851  -14.3880 C   0  0  0  0  0  0  0  0  0  0  0  0
    0.4158   -2.5705  -15.5337 O   0  0  0  0  0  0  0  0  0  0  0  0
    1.2542   -2.4773  -16.5778 C   0  0  0  0  0  0  0  0  0  0  0  0
    2.3488   -2.9856  -16.5209 O   0  0  0  0  0  0  0  0  0  0  0  0
    0.8301   -1.7386  -17.8211 C   0  0  0  0  0  0  0  0  0  0  0  0
    1.9613   -1.7812  -18.8504 C   0  0  0  0  0  0  0  0  0  0  0  0
    1.5983   -0.9574  -20.0112 N   0  3  2  0  0  0  0  0  0  0  0  0
    0.2962   -1.3948  -20.5374 C   0  0  0  0  0  0  0  0  0  0  0  0
   -0.2042   -0.3473  -21.5326 C   0  0  0  0  0  0  0  0  0  0  0  0
    0.8750   -0.0447  -22.5410 C   0  0  0  0  0  0  0  0  0  0  0  0
    0.5224    0.6034  -23.7151 C   0  0  0  0  0  0  0  0  0  0  0  0
    1.4838    0.9023  -24.6642 C   0  0  0  0  0  0  0  0  0  0  0  0
    2.8107    0.5490  -24.4359 C   0  0  0  0  0  0  0  0  0  0  0  0
    3.1564   -0.0990  -23.2638 C   0  0  0  0  0  0  0  0  0  0  0  0
    2.1887   -0.3979  -22.3154 C   0  0  0  0  0  0  0  0  0  0  0  0
    2.6120   -1.1116  -21.0584 C   0  0  1  0  0  0  0  0  0  0  0  0
    2.7467   -2.1714  -21.2748 H   0  0  0  0  0  0  0  0  0  0  0  0
    3.9373   -0.5255  -20.5676 C   0  0  0  0  0  0  0  0  0  0  0  0
    4.4816   -1.3794  -19.4515 C   0  0  0  0  0  0  0  0  0  0  0  0
    4.6180   -0.8499  -18.1817 C   0  0  0  0  0  0  0  0  0  0  0  0
    5.1168   -1.6291  -17.1545 C   0  0  0  0  0  0  0  0  0  0  0  0
    5.4809   -2.9441  -17.3964 C   0  0  0  0  0  0  0  0  0  0  0  0
    5.3431   -3.4771  -18.6744 C   0  0  0  0  0  0  0  0  0  0  0  0
    4.8380   -2.6920  -19.6984 C   0  0  0  0  0  0  0  0  0  0  0  0
    5.6991   -4.7670  -18.9167 O   0  0  0  0  0  0  0  0  0  0  0  0
    5.5302   -5.2467  -20.2522 C   0  0  0  0  0  0  0  0  0  0  0  0
    5.9721   -3.7118  -16.3871 O   0  0  0  0  0  0  0  0  0  0  0  0
    6.0862   -3.0981  -15.1016 C   0  0  0  0  0  0  0  0  0  0  0  0
    3.7634    0.8394  -25.3619 O   0  0  0  0  0  0  0  0  0  0  0  0
    5.1036    0.4465  -25.0591 C   0  0  0  0  0  0  0  0  0  0  0  0
    1.1340    1.5377  -25.8146 O   0  0  0  0  0  0  0  0  0  0  0  0
   -0.2464    1.8684  -25.9791 C   0  0  0  0  0  0  0  0  0  0  0  0
    1.5189    0.4529  -19.6077 C   0  0  0  0  0  0  0  0  0  0  0  0
   -4.0534   -6.2536   -5.4049 H   0  0  0  0  0  0  0  0  0  0  0  0
   -3.4215   -7.7952   -4.7784 H   0  0  0  0  0  0  0  0  0  0  0  0
   -4.3258   -6.7015   -3.7039 H   0  0  0  0  0  0  0  0  0  0  0  0
   -1.3921   -7.7204   -3.2666 H   0  0  0  0  0  0  0  0  0  0  0  0
   -0.9999   -6.1296   -2.5629 H   0  0  0  0  0  0  0  0  0  0  0  0
   -3.6114   -7.6796   -2.2974 H   0  0  0  0  0  0  0  0  0  0  0  0
   -2.4591   -7.2800   -1.0025 H   0  0  0  0  0  0  0  0  0  0  0  0
   -4.4877   -6.3158    0.1184 H   0  0  0  0  0  0  0  0  0  0  0  0
   -4.0760   -2.5711   -3.0511 H   0  0  0  0  0  0  0  0  0  0  0  0
   -0.8236   -4.3761   -2.7152 H   0  0  0  0  0  0  0  0  0  0  0  0
   -0.6694   -4.0799   -4.4636 H   0  0  0  0  0  0  0  0  0  0  0  0
   -1.7084   -2.0415   -5.4539 H   0  0  0  0  0  0  0  0  0  0  0  0
   -2.1394    0.3549   -5.0949 H   0  0  0  0  0  0  0  0  0  0  0  0
   -1.5087   -2.6517   -1.2377 H   0  0  0  0  0  0  0  0  0  0  0  0
   -2.5137   -1.8531    0.4128 H   0  0  0  0  0  0  0  0  0  0  0  0
   -0.7634   -1.5320    0.3727 H   0  0  0  0  0  0  0  0  0  0  0  0
   -1.8239   -0.5544    1.4158 H   0  0  0  0  0  0  0  0  0  0  0  0
   -1.5768    2.2942   -4.5384 H   0  0  0  0  0  0  0  0  0  0  0  0
   -3.3273    1.9738   -4.4986 H   0  0  0  0  0  0  0  0  0  0  0  0
   -2.6585    3.3729   -3.6247 H   0  0  0  0  0  0  0  0  0  0  0  0
   -4.3923   -0.7752   -2.0256 H   0  0  0  0  0  0  0  0  0  0  0  0
   -5.7968   -1.3881   -2.9311 H   0  0  0  0  0  0  0  0  0  0  0  0
   -6.0243   -0.1696   -1.6536 H   0  0  0  0  0  0  0  0  0  0  0  0
   -6.5608   -5.0727    2.5027 H   0  0  0  0  0  0  0  0  0  0  0  0
   -6.3221   -6.1623    1.1156 H   0  0  0  0  0  0  0  0  0  0  0  0
   -4.9159   -5.5515    2.0198 H   0  0  0  0  0  0  0  0  0  0  0  0
   -0.5002   -5.6383   -5.0071 H   0  0  0  0  0  0  0  0  0  0  0  0
   -1.1981   -7.1996   -5.5006 H   0  0  0  0  0  0  0  0  0  0  0  0
   -2.9032   -6.0635   -6.8381 H   0  0  0  0  0  0  0  0  0  0  0  0
   -2.3420   -4.4756   -6.2621 H   0  0  0  0  0  0  0  0  0  0  0  0
    0.6130   -4.3333   -9.3894 H   0  0  0  0  0  0  0  0  0  0  0  0
   -0.0529   -5.8422  -10.0588 H   0  0  0  0  0  0  0  0  0  0  0  0
   -1.6831   -4.5319  -11.3907 H   0  0  0  0  0  0  0  0  0  0  0  0
   -1.0172   -3.0230  -10.7213 H   0  0  0  0  0  0  0  0  0  0  0  0
    1.1971   -3.5683  -11.6951 H   0  0  0  0  0  0  0  0  0  0  0  0
    0.5312   -5.0772  -12.3644 H   0  0  0  0  0  0  0  0  0  0  0  0
   -1.0990   -3.7669  -13.6963 H   0  0  0  0  0  0  0  0  0  0  0  0
   -0.4331   -2.2580  -13.0270 H   0  0  0  0  0  0  0  0  0  0  0  0
    1.7812   -2.8033  -14.0007 H   0  0  0  0  0  0  0  0  0  0  0  0
    1.1153   -4.3122  -14.6701 H   0  0  0  0  0  0  0  0  0  0  0  0
   -0.0592   -2.2108  -18.2387 H   0  0  0  0  0  0  0  0  0  0  0  0
    0.6068   -0.7019  -17.5693 H   0  0  0  0  0  0  0  0  0  0  0  0
    2.8758   -1.3936  -18.4015 H   0  0  0  0  0  0  0  0  0  0  0  0
    2.1219   -2.8104  -19.1713 H   0  0  0  0  0  0  0  0  0  0  0  0
    0.4090   -2.3544  -21.0419 H   0  0  0  0  0  0  0  0  0  0  0  0
   -0.4161   -1.4907  -19.7180 H   0  0  0  0  0  0  0  0  0  0  0  0
   -1.0853   -0.7291  -22.0484 H   0  0  0  0  0  0  0  0  0  0  0  0
   -0.4660    0.5654  -20.9972 H   0  0  0  0  0  0  0  0  0  0  0  0
   -0.5078    0.8766  -23.8895 H   0  0  0  0  0  0  0  0  0  0  0  0
    4.1856   -0.3735  -23.0856 H   0  0  0  0  0  0  0  0  0  0  0  0
    4.6520   -0.5041  -21.3903 H   0  0  0  0  0  0  0  0  0  0  0  0
    3.7732    0.4884  -20.2024 H   0  0  0  0  0  0  0  0  0  0  0  0
    4.3346    0.1748  -17.9918 H   0  0  0  0  0  0  0  0  0  0  0  0
    5.2231   -1.2129  -16.1636 H   0  0  0  0  0  0  0  0  0  0  0  0
    4.7266   -3.1044  -20.6903 H   0  0  0  0  0  0  0  0  0  0  0  0
    4.4798   -5.1748  -20.5340 H   0  0  0  0  0  0  0  0  0  0  0  0
    6.1312   -4.6441  -20.9333 H   0  0  0  0  0  0  0  0  0  0  0  0
    5.8510   -6.2869  -20.3080 H   0  0  0  0  0  0  0  0  0  0  0  0
    6.7535   -2.2387  -15.1672 H   0  0  0  0  0  0  0  0  0  0  0  0
    5.1022   -2.7695  -14.7673 H   0  0  0  0  0  0  0  0  0  0  0  0
    6.4901   -3.8181  -14.3898 H   0  0  0  0  0  0  0  0  0  0  0  0
    5.7612    0.7369  -25.8784 H   0  0  0  0  0  0  0  0  0  0  0  0
    5.4276    0.9376  -24.1416 H   0  0  0  0  0  0  0  0  0  0  0  0
    5.1441   -0.6346  -24.9264 H   0  0  0  0  0  0  0  0  0  0  0  0
   -0.3882    2.3701  -26.9363 H   0  0  0  0  0  0  0  0  0  0  0  0
   -0.8438    0.9570  -25.9546 H   0  0  0  0  0  0  0  0  0  0  0  0
   -0.5602    2.5302  -25.1719 H   0  0  0  0  0  0  0  0  0  0  0  0
    2.4862    0.7754  -19.2223 H   0  0  0  0  0  0  0  0  0  0  0  0
    1.2496    1.0629  -20.4699 H   0  0  0  0  0  0  0  0  0  0  0  0
    0.7623    0.5666  -18.8314 H   0  0  0  0  0  0  0  0  0  0  0  0
  1 70  1  0  0  0  0
  1 71  1  0  0  0  0
  1 72  1  0  0  0  0
  2  1  1  6  0  0  0
  2 11  1  0  0  0  0
  2  3  1  0  0  0  0
  2 28  1  0  0  0  0
  3  4  1  0  0  0  0
  3 73  1  0  0  0  0
  3 74  1  0  0  0  0
  4  5  1  0  0  0  0
  4 75  1  0  0  0  0
  4 76  1  0  0  0  0
  5 10  2  0  0  0  0
  5  6  1  0  0  0  0
  6  7  2  0  0  0  0
  6 77  1  0  0  0  0
  7  8  1  0  0  0  0
  7 26  1  0  0  0  0
  8  9  2  0  0  0  0
  8 24  1  0  0  0  0
  9 10  1  0  0  0  0
  9 78  1  0  0  0  0
 10 11  1  0  0  0  0
 11 12  1  6  0  0  0
 11 13  1  0  0  0  0
 13 14  1  0  0  0  0
 13 79  1  0  0  0  0
 13 80  1  0  0  0  0
 14 19  2  0  0  0  0
 14 15  1  0  0  0  0
 15 16  2  0  0  0  0
 15 81  1  0  0  0  0
 16 17  1  0  0  0  0
 16 82  1  0  0  0  0
 17 18  2  0  0  0  0
 17 22  1  0  0  0  0
 18 19  1  0  0  0  0
 18 20  1  0  0  0  0
 19 83  1  0  0  0  0
 20 21  1  0  0  0  0
 21 84  1  0  0  0  0
 21 85  1  0  0  0  0
 21 86  1  0  0  0  0
 22 23  1  0  0  0  0
 23 87  1  0  0  0  0
 23 88  1  0  0  0  0
 23 89  1  0  0  0  0
 24 25  1  0  0  0  0
 25 90  1  0  0  0  0
 25 91  1  0  0  0  0
 25 92  1  0  0  0  0
 26 27  1  0  0  0  0
 27 93  1  0  0  0  0
 27 94  1  0  0  0  0
 27 95  1  0  0  0  0
 28 29  1  0  0  0  0
 28 96  1  0  0  0  0
 28 97  1  0  0  0  0
 29 30  1  0  0  0  0
 29 98  1  0  0  0  0
 29 99  1  0  0  0  0
 30 31  2  0  0  0  0
 30 32  1  0  0  0  0
 32 33  1  0  0  0  0
 33 34  1  0  0  0  0
 33100  1  0  0  0  0
 33101  1  0  0  0  0
 34 35  1  0  0  0  0
 34102  1  0  0  0  0
 34103  1  0  0  0  0
 35 36  1  0  0  0  0
 35104  1  0  0  0  0
 35105  1  0  0  0  0
 36 37  1  0  0  0  0
 36106  1  0  0  0  0
 36107  1  0  0  0  0
 37 38  1  0  0  0  0
 37108  1  0  0  0  0
 37109  1  0  0  0  0
 38 39  1  0  0  0  0
 39 40  2  0  0  0  0
 39 41  1  0  0  0  0
 41 42  1  0  0  0  0
 41110  1  0  0  0  0
 41111  1  0  0  0  0
 42112  1  0  0  0  0
 42113  1  0  0  0  0
 43 42  1  1  0  0  0
 43 52  1  0  0  0  0
 43 44  1  0  0  0  0
 43 69  1  0  0  0  0
 44 45  1  0  0  0  0
 44114  1  0  0  0  0
 44115  1  0  0  0  0
 45 46  1  0  0  0  0
 45116  1  0  0  0  0
 45117  1  0  0  0  0
 46 51  2  0  0  0  0
 46 47  1  0  0  0  0
 47 48  2  0  0  0  0
 47118  1  0  0  0  0
 48 49  1  0  0  0  0
 48 67  1  0  0  0  0
 49 50  2  0  0  0  0
 49 65  1  0  0  0  0
 50 51  1  0  0  0  0
 50119  1  0  0  0  0
 51 52  1  0  0  0  0
 52 53  1  6  0  0  0
 52 54  1  0  0  0  0
 54 55  1  0  0  0  0
 54120  1  0  0  0  0
 54121  1  0  0  0  0
 55 60  2  0  0  0  0
 55 56  1  0  0  0  0
 56 57  2  0  0  0  0
 56122  1  0  0  0  0
 57 58  1  0  0  0  0
 57123  1  0  0  0  0
 58 59  2  0  0  0  0
 58 63  1  0  0  0  0
 59 60  1  0  0  0  0
 59 61  1  0  0  0  0
 60124  1  0  0  0  0
 61 62  1  0  0  0  0
 62125  1  0  0  0  0
 62126  1  0  0  0  0
 62127  1  0  0  0  0
 63 64  1  0  0  0  0
 64128  1  0  0  0  0
 64129  1  0  0  0  0
 64130  1  0  0  0  0
 65 66  1  0  0  0  0
 66131  1  0  0  0  0
 66132  1  0  0  0  0
 66133  1  0  0  0  0
 67 68  1  0  0  0  0
 68134  1  0  0  0  0
 68135  1  0  0  0  0
 68136  1  0  0  0  0
 69137  1  0  0  0  0
 69138  1  0  0  0  0
 69139  1  0  0  0  0
M  CHG  2   2   1  43   1
M  END
$$$$
