ZINC13911941
 OpenBabel08292219463D

 74 76  0  0  1  0  0  0  0  0999 V2000
   -0.4252    0.8315   -0.0459 C   0  0  0  0  0  0  0  0  0  0  0  0
   -0.0390   -0.6470    0.0314 C   0  0  2  0  0  0  0  0  0  0  0  0
    0.5413   -0.9175   -0.8507 H   0  0  0  0  0  0  0  0  0  0  0  0
   -1.2869   -1.4898    0.0896 C   0  0  0  0  0  0  0  0  0  0  0  0
   -1.5208   -2.3791   -0.8434 C   0  0  0  0  0  0  0  0  0  0  0  0
   -2.7687   -3.2219   -0.7852 C   0  0  2  0  0  0  0  0  0  0  0  0
   -3.3490   -2.9514    0.0969 H   0  0  0  0  0  0  0  0  0  0  0  0
   -2.3824   -4.7004   -0.7079 C   0  0  0  0  0  0  0  0  0  0  0  0
   -3.6073   -2.9789   -2.0416 C   0  0  0  0  0  0  0  0  0  0  0  0
   -2.7928   -3.3586   -3.2798 C   0  0  0  0  0  0  0  0  0  0  0  0
   -4.8743   -3.8346   -1.9825 C   0  0  0  0  0  0  0  0  0  0  0  0
   -3.9681   -1.5981   -2.1138 O   0  0  0  0  0  0  0  0  0  0  0  0
    0.7997   -0.8900    1.2878 C   0  0  1  0  0  0  0  0  0  0  0  0
    0.2271   -0.6352    2.1796 H   0  0  0  0  0  0  0  0  0  0  0  0
    1.2624   -2.3692    1.3489 C   0  0  0  0  0  0  0  0  0  0  0  0
    2.8149   -2.3383    1.4282 C   0  0  0  0  0  0  0  0  0  0  0  0
    3.0957   -0.9552    2.0199 C   0  0  2  0  0  0  0  0  0  0  0  0
    2.8751   -0.9401    3.0873 H   0  0  0  0  0  0  0  0  0  0  0  0
    2.0823   -0.0746    1.2327 C   0  0  2  0  0  0  0  0  0  0  0  0
    2.0855    1.3004    1.8587 C   0  0  0  0  0  0  0  0  0  0  0  0
    3.4532    1.9400    1.5661 C   0  0  0  0  0  0  0  0  0  0  0  0
    4.6014    1.1048    2.1291 C   0  0  0  0  0  0  0  0  0  0  0  0
    4.4497   -0.3694    1.7502 C   0  0  0  0  0  0  0  0  0  0  0  0
    5.4375   -1.0775    1.2133 C   0  0  0  0  0  0  0  0  0  0  0  0
    6.7457   -0.4495    0.9714 C   0  0  0  0  0  0  0  0  0  0  0  0
    7.6993   -1.1237    0.3377 C   0  0  0  0  0  0  0  0  0  0  0  0
    7.4178   -2.4806   -0.2687 C   0  0  0  0  0  0  0  0  0  0  0  0
    7.8894   -2.4700   -1.7266 C   0  0  2  0  0  0  0  0  0  0  0  0
    7.7822   -3.4684   -2.1506 H   0  0  0  0  0  0  0  0  0  0  0  0
    9.3584   -2.0472   -1.7824 C   0  0  0  0  0  0  0  0  0  0  0  0
    9.5049   -0.6130   -1.2713 C   0  0  1  0  0  0  0  0  0  0  0  0
    8.8635    0.0480   -1.8542 H   0  0  0  0  0  0  0  0  0  0  0  0
    9.0925   -0.5511    0.1987 C   0  0  0  0  0  0  0  0  0  0  0  0
   10.8653   -0.1962   -1.4045 O   0  0  0  0  0  0  0  0  0  0  0  0
    7.0984   -1.5460   -2.4767 O   0  0  0  0  0  0  0  0  0  0  0  0
    2.5435    0.0437   -0.2213 C   0  0  0  0  0  0  0  0  0  0  0  0
    0.4774    1.4411   -0.0880 H   0  0  0  0  0  0  0  0  0  0  0  0
   -1.0227    1.0046   -0.9409 H   0  0  0  0  0  0  0  0  0  0  0  0
   -1.0055    1.1020    0.8363 H   0  0  0  0  0  0  0  0  0  0  0  0
   -1.9884   -1.3607    0.9006 H   0  0  0  0  0  0  0  0  0  0  0  0
   -0.8193   -2.5082   -1.6544 H   0  0  0  0  0  0  0  0  0  0  0  0
   -1.8021   -4.9709   -1.5901 H   0  0  0  0  0  0  0  0  0  0  0  0
   -1.7850   -4.8735    0.1871 H   0  0  0  0  0  0  0  0  0  0  0  0
   -3.2850   -5.3100   -0.6658 H   0  0  0  0  0  0  0  0  0  0  0  0
   -2.5176   -4.4119   -3.2248 H   0  0  0  0  0  0  0  0  0  0  0  0
   -3.3902   -3.1855   -4.1749 H   0  0  0  0  0  0  0  0  0  0  0  0
   -1.8902   -2.7490   -3.3219 H   0  0  0  0  0  0  0  0  0  0  0  0
   -5.4546   -3.5641   -1.1003 H   0  0  0  0  0  0  0  0  0  0  0  0
   -5.4717   -3.6615   -2.8776 H   0  0  0  0  0  0  0  0  0  0  0  0
   -4.5991   -4.8879   -1.9274 H   0  0  0  0  0  0  0  0  0  0  0  0
   -4.4874   -1.2873   -1.3595 H   0  0  0  0  0  0  0  0  0  0  0  0
    0.8519   -2.8535    2.2350 H   0  0  0  0  0  0  0  0  0  0  0  0
    0.9438   -2.8985    0.4509 H   0  0  0  0  0  0  0  0  0  0  0  0
    3.1837   -3.1231    2.0886 H   0  0  0  0  0  0  0  0  0  0  0  0
    3.2543   -2.4299    0.4348 H   0  0  0  0  0  0  0  0  0  0  0  0
    1.2923    1.9075    1.4223 H   0  0  0  0  0  0  0  0  0  0  0  0
    1.9388    1.2171    2.9355 H   0  0  0  0  0  0  0  0  0  0  0  0
    3.5780    2.0339    0.4874 H   0  0  0  0  0  0  0  0  0  0  0  0
    3.4838    2.9334    2.0137 H   0  0  0  0  0  0  0  0  0  0  0  0
    5.5457    1.4811    1.7355 H   0  0  0  0  0  0  0  0  0  0  0  0
    4.6073    1.1890    3.2159 H   0  0  0  0  0  0  0  0  0  0  0  0
    5.2801   -2.1142    0.9546 H   0  0  0  0  0  0  0  0  0  0  0  0
    6.9310    0.5596    1.3089 H   0  0  0  0  0  0  0  0  0  0  0  0
    7.9579   -3.2483    0.2853 H   0  0  0  0  0  0  0  0  0  0  0  0
    6.3474   -2.6832   -0.2317 H   0  0  0  0  0  0  0  0  0  0  0  0
    9.9519   -2.7163   -1.1594 H   0  0  0  0  0  0  0  0  0  0  0  0
    9.7126   -2.1029   -2.8117 H   0  0  0  0  0  0  0  0  0  0  0  0
    9.0977    0.4854    0.5359 H   0  0  0  0  0  0  0  0  0  0  0  0
    9.7905   -1.1371    0.7967 H   0  0  0  0  0  0  0  0  0  0  0  0
   11.0320    0.7059   -1.0989 H   0  0  0  0  0  0  0  0  0  0  0  0
    6.1537   -1.7525   -2.4840 H   0  0  0  0  0  0  0  0  0  0  0  0
    1.8405    0.6650   -0.7761 H   0  0  0  0  0  0  0  0  0  0  0  0
    3.5335    0.4986   -0.2526 H   0  0  0  0  0  0  0  0  0  0  0  0
    2.5851   -0.9483   -0.6712 H   0  0  0  0  0  0  0  0  0  0  0  0
  1  2  1  0  0  0  0
  1 37  1  0  0  0  0
  1 38  1  0  0  0  0
  1 39  1  0  0  0  0
  2  3  1  6  0  0  0
  2  4  1  0  0  0  0
  2 13  1  0  0  0  0
  4  5  2  0  0  0  0
  4 40  1  0  0  0  0
  5  6  1  0  0  0  0
  5 41  1  0  0  0  0
  6  7  1  1  0  0  0
  6  8  1  0  0  0  0
  6  9  1  0  0  0  0
  8 42  1  0  0  0  0
  8 43  1  0  0  0  0
  8 44  1  0  0  0  0
  9 10  1  0  0  0  0
  9 11  1  0  0  0  0
  9 12  1  0  0  0  0
 10 45  1  0  0  0  0
 10 46  1  0  0  0  0
 10 47  1  0  0  0  0
 11 48  1  0  0  0  0
 11 49  1  0  0  0  0
 11 50  1  0  0  0  0
 12 51  1  0  0  0  0
 13 14  1  1  0  0  0
 13 19  1  0  0  0  0
 13 15  1  0  0  0  0
 15 16  1  0  0  0  0
 15 52  1  0  0  0  0
 15 53  1  0  0  0  0
 16 17  1  0  0  0  0
 16 54  1  0  0  0  0
 16 55  1  0  0  0  0
 17 18  1  1  0  0  0
 17 23  1  0  0  0  0
 17 19  1  0  0  0  0
 19 20  1  0  0  0  0
 19 36  1  6  0  0  0
 20 21  1  0  0  0  0
 20 56  1  0  0  0  0
 20 57  1  0  0  0  0
 21 22  1  0  0  0  0
 21 58  1  0  0  0  0
 21 59  1  0  0  0  0
 22 23  1  0  0  0  0
 22 60  1  0  0  0  0
 22 61  1  0  0  0  0
 23 24  2  0  0  0  0
 24 25  1  0  0  0  0
 24 62  1  0  0  0  0
 25 26  2  0  0  0  0
 25 63  1  0  0  0  0
 26 33  1  0  0  0  0
 26 27  1  0  0  0  0
 27 28  1  0  0  0  0
 27 64  1  0  0  0  0
 27 65  1  0  0  0  0
 28 29  1  6  0  0  0
 28 30  1  0  0  0  0
 28 35  1  0  0  0  0
 30 31  1  0  0  0  0
 30 66  1  0  0  0  0
 30 67  1  0  0  0  0
 31 32  1  6  0  0  0
 31 33  1  0  0  0  0
 31 34  1  0  0  0  0
 33 68  1  0  0  0  0
 33 69  1  0  0  0  0
 34 70  1  0  0  0  0
 35 71  1  0  0  0  0
 36 72  1  0  0  0  0
 36 73  1  0  0  0  0
 36 74  1  0  0  0  0
M  END
$$$$
