ZINC00538509
 OpenBabel08292219463D

 57 58  0  0  0  0  0  0  0  0999 V2000
    0.8656   -0.3580   -0.9926 C   0  0  0  0  0  0  0  0  0  0  0  0
   -0.0118   -0.0050    0.1314 N   0  3  0  0  0  0  0  0  0  0  0  0
   -0.0444    1.4554    0.2873 C   0  0  0  0  0  0  0  0  0  0  0  0
   -1.3695   -0.4996   -0.1331 C   0  0  0  0  0  0  0  0  0  0  0  0
   -1.3621   -2.0295   -0.1432 C   0  0  0  0  0  0  0  0  0  0  0  0
   -1.0224   -2.5127    1.1580 O   0  0  0  0  0  0  0  0  0  0  0  0
   -0.9712   -3.8609    1.3216 C   0  0  0  0  0  0  0  0  0  0  0  0
   -1.2368   -4.7013    0.2502 C   0  0  0  0  0  0  0  0  0  0  0  0
   -1.1837   -6.0714    0.4189 C   0  0  0  0  0  0  0  0  0  0  0  0
   -0.8666   -6.6053    1.6543 C   0  0  0  0  0  0  0  0  0  0  0  0
   -0.6019   -5.7698    2.7238 C   0  0  0  0  0  0  0  0  0  0  0  0
   -0.6477   -4.3990    2.5587 C   0  0  0  0  0  0  0  0  0  0  0  0
   -0.8098   -8.1002    1.8357 C   0  0  0  0  0  0  0  0  0  0  0  0
    0.5474   -8.5750    1.5550 N   0  0  0  0  0  0  0  0  0  0  0  0
    0.8360   -9.8878    1.6539 C   0  0  0  0  0  0  0  0  0  0  0  0
   -0.0300  -10.6780    1.9761 O   0  0  0  0  0  0  0  0  0  0  0  0
    2.2035  -10.3662    1.3711 C   0  0  0  0  0  0  0  0  0  0  0  0
    3.2009   -9.4585    1.0064 C   0  0  0  0  0  0  0  0  0  0  0  0
    4.4808   -9.9089    0.7425 C   0  0  0  0  0  0  0  0  0  0  0  0
    4.7763  -11.2661    0.8395 C   0  0  0  0  0  0  0  0  0  0  0  0
    3.7840  -12.1728    1.2023 C   0  0  0  0  0  0  0  0  0  0  0  0
    2.5040  -11.7267    1.4732 C   0  0  0  0  0  0  0  0  0  0  0  0
    4.0757  -13.4979    1.2957 O   0  0  0  0  0  0  0  0  0  0  0  0
    3.0098  -14.3718    1.6728 C   0  0  0  0  0  0  0  0  0  0  0  0
    6.0353  -11.7065    0.5792 O   0  0  0  0  0  0  0  0  0  0  0  0
    6.9439  -11.7622    1.6807 C   0  0  0  0  0  0  0  0  0  0  0  0
    5.4523   -9.0258    0.3875 O   0  0  0  0  0  0  0  0  0  0  0  0
    5.0791   -7.6487    0.3070 C   0  0  0  0  0  0  0  0  0  0  0  0
    1.8730    0.0089   -0.7963 H   0  0  0  0  0  0  0  0  0  0  0  0
    0.8897   -1.4416   -1.1082 H   0  0  0  0  0  0  0  0  0  0  0  0
    0.4851    0.0966   -1.9073 H   0  0  0  0  0  0  0  0  0  0  0  0
    0.9658    1.8244    0.4649 H   0  0  0  0  0  0  0  0  0  0  0  0
   -0.4425    1.9089   -0.6204 H   0  0  0  0  0  0  0  0  0  0  0  0
   -0.6804    1.7164    1.1331 H   0  0  0  0  0  0  0  0  0  0  0  0
   -2.0438   -0.1446    0.6463 H   0  0  0  0  0  0  0  0  0  0  0  0
   -1.7080   -0.1315   -1.1017 H   0  0  0  0  0  0  0  0  0  0  0  0
   -2.3506   -2.3958   -0.4202 H   0  0  0  0  0  0  0  0  0  0  0  0
   -0.6274   -2.3845   -0.8658 H   0  0  0  0  0  0  0  0  0  0  0  0
   -1.4852   -4.2849   -0.7148 H   0  0  0  0  0  0  0  0  0  0  0  0
   -1.3903   -6.7261   -0.4148 H   0  0  0  0  0  0  0  0  0  0  0  0
   -0.3549   -6.1892    3.6878 H   0  0  0  0  0  0  0  0  0  0  0  0
   -0.4366   -3.7468    3.3932 H   0  0  0  0  0  0  0  0  0  0  0  0
   -1.0780   -8.3522    2.8617 H   0  0  0  0  0  0  0  0  0  0  0  0
   -1.5104   -8.5763    1.1496 H   0  0  0  0  0  0  0  0  0  0  0  0
    1.2383   -7.9446    1.2979 H   0  0  0  0  0  0  0  0  0  0  0  0
    2.9720   -8.4057    0.9304 H   0  0  0  0  0  0  0  0  0  0  0  0
    1.7358  -12.4298    1.7593 H   0  0  0  0  0  0  0  0  0  0  0  0
    3.3767  -15.3975    1.7097 H   0  0  0  0  0  0  0  0  0  0  0  0
    2.6347  -14.0845    2.6551 H   0  0  0  0  0  0  0  0  0  0  0  0
    2.2049  -14.2999    0.9413 H   0  0  0  0  0  0  0  0  0  0  0  0
    7.9105  -12.1297    1.3362 H   0  0  0  0  0  0  0  0  0  0  0  0
    7.0641  -10.7647    2.1034 H   0  0  0  0  0  0  0  0  0  0  0  0
    6.5501  -12.4347    2.4428 H   0  0  0  0  0  0  0  0  0  0  0  0
    4.2893   -7.5290   -0.4345 H   0  0  0  0  0  0  0  0  0  0  0  0
    4.7188   -7.3125    1.2792 H   0  0  0  0  0  0  0  0  0  0  0  0
    5.9448   -7.0542    0.0149 H   0  0  0  0  0  0  0  0  0  0  0  0
    0.3404   -0.4258    0.9781 H   0  0  0  0  0  0  0  0  0  0  0  0
  1  2  1  0  0  0  0
  1 29  1  0  0  0  0
  1 30  1  0  0  0  0
  1 31  1  0  0  0  0
  2  3  1  0  0  0  0
  2  4  1  0  0  0  0
  2 57  1  0  0  0  0
  3 32  1  0  0  0  0
  3 33  1  0  0  0  0
  3 34  1  0  0  0  0
  4  5  1  0  0  0  0
  4 35  1  0  0  0  0
  4 36  1  0  0  0  0
  5  6  1  0  0  0  0
  5 37  1  0  0  0  0
  5 38  1  0  0  0  0
  6  7  1  0  0  0  0
  7 12  2  0  0  0  0
  7  8  1  0  0  0  0
  8  9  2  0  0  0  0
  8 39  1  0  0  0  0
  9 10  1  0  0  0  0
  9 40  1  0  0  0  0
 10 11  2  0  0  0  0
 10 13  1  0  0  0  0
 11 12  1  0  0  0  0
 11 41  1  0  0  0  0
 12 42  1  0  0  0  0
 13 14  1  0  0  0  0
 13 43  1  0  0  0  0
 13 44  1  0  0  0  0
 14 15  1  0  0  0  0
 14 45  1  0  0  0  0
 15 16  2  0  0  0  0
 15 17  1  0  0  0  0
 17 22  2  0  0  0  0
 17 18  1  0  0  0  0
 18 19  2  0  0  0  0
 18 46  1  0  0  0  0
 19 20  1  0  0  0  0
 19 27  1  0  0  0  0
 20 21  2  0  0  0  0
 20 25  1  0  0  0  0
 21 22  1  0  0  0  0
 21 23  1  0  0  0  0
 22 47  1  0  0  0  0
 23 24  1  0  0  0  0
 24 48  1  0  0  0  0
 24 49  1  0  0  0  0
 24 50  1  0  0  0  0
 25 26  1  0  0  0  0
 26 51  1  0  0  0  0
 26 52  1  0  0  0  0
 26 53  1  0  0  0  0
 27 28  1  0  0  0  0
 28 54  1  0  0  0  0
 28 55  1  0  0  0  0
 28 56  1  0  0  0  0
M  CHG  1   2   1
M  END
$$$$
