ZINC01481910
 OpenBabel08292219463D

 33 33  0  0  1  0  0  0  0  0999 V2000
    2.1877    1.5906    1.5003 C   0  0  0  0  0  0  0  0  0  0  0  0
    2.1084    0.1084    1.1292 C   0  0  1  0  0  0  0  0  0  0  0  0
    2.7716   -0.4644    1.7774 H   0  0  0  0  0  0  0  0  0  0  0  0
    0.6711   -0.3854    1.3059 C   0  0  0  0  0  0  0  0  0  0  0  0
    0.6184   -1.8964    1.0715 C   0  0  0  0  0  0  0  0  0  0  0  0
   -0.8368   -2.3675    1.1064 C   0  0  0  0  0  0  0  0  0  0  0  0
   -0.8894   -3.8785    0.8720 C   0  0  0  0  0  0  0  0  0  0  0  0
   -0.0957   -4.5926    1.9679 C   0  0  0  0  0  0  0  0  0  0  0  0
    1.3595   -4.1215    1.9330 C   0  0  0  0  0  0  0  0  0  0  0  0
    1.4121   -2.6105    2.1674 C   0  0  0  0  0  0  0  0  0  0  0  0
    2.5185   -0.0687   -0.2702 N   0  3  0  0  0  0  0  0  0  0  0  0
    3.9402    0.2729   -0.4108 C   0  0  0  0  0  0  0  0  0  0  0  0
    1.8835    1.7220    2.5387 H   0  0  0  0  0  0  0  0  0  0  0  0
    3.2117    1.9423    1.3745 H   0  0  0  0  0  0  0  0  0  0  0  0
    1.5245    2.1634    0.8521 H   0  0  0  0  0  0  0  0  0  0  0  0
    0.3321   -0.1626    2.3176 H   0  0  0  0  0  0  0  0  0  0  0  0
    0.0235    0.1166    0.5870 H   0  0  0  0  0  0  0  0  0  0  0  0
    1.0523   -2.1285    0.0988 H   0  0  0  0  0  0  0  0  0  0  0  0
   -1.2706   -2.1354    2.0790 H   0  0  0  0  0  0  0  0  0  0  0  0
   -1.4022   -1.8588    0.3256 H   0  0  0  0  0  0  0  0  0  0  0  0
   -1.9262   -4.2142    0.8968 H   0  0  0  0  0  0  0  0  0  0  0  0
   -0.4556   -4.1107   -0.1007 H   0  0  0  0  0  0  0  0  0  0  0  0
   -0.5296   -4.3605    2.9405 H   0  0  0  0  0  0  0  0  0  0  0  0
   -0.1332   -5.6691    1.8009 H   0  0  0  0  0  0  0  0  0  0  0  0
    1.9249   -4.6302    2.7138 H   0  0  0  0  0  0  0  0  0  0  0  0
    1.7933   -4.3536    0.9603 H   0  0  0  0  0  0  0  0  0  0  0  0
    2.4489   -2.2748    2.1425 H   0  0  0  0  0  0  0  0  0  0  0  0
    0.9783   -2.3784    3.1401 H   0  0  0  0  0  0  0  0  0  0  0  0
    2.3747   -1.0292   -0.5439 H   0  0  0  0  0  0  0  0  0  0  0  0
    4.2445    0.1416   -1.4492 H   0  0  0  0  0  0  0  0  0  0  0  0
    4.0956    1.3105   -0.1152 H   0  0  0  0  0  0  0  0  0  0  0  0
    4.5356   -0.3798    0.2276 H   0  0  0  0  0  0  0  0  0  0  0  0
    1.9673    0.5355   -0.8612 H   0  0  0  0  0  0  0  0  0  0  0  0
  1  2  1  0  0  0  0
  1 13  1  0  0  0  0
  1 14  1  0  0  0  0
  1 15  1  0  0  0  0
  2  3  1  1  0  0  0
  2  4  1  0  0  0  0
  2 11  1  0  0  0  0
  4  5  1  0  0  0  0
  4 16  1  0  0  0  0
  4 17  1  0  0  0  0
  5 10  1  0  0  0  0
  5  6  1  0  0  0  0
  5 18  1  0  0  0  0
  6  7  1  0  0  0  0
  6 19  1  0  0  0  0
  6 20  1  0  0  0  0
  7  8  1  0  0  0  0
  7 21  1  0  0  0  0
  7 22  1  0  0  0  0
  8  9  1  0  0  0  0
  8 23  1  0  0  0  0
  8 24  1  0  0  0  0
  9 10  1  0  0  0  0
  9 25  1  0  0  0  0
  9 26  1  0  0  0  0
 10 27  1  0  0  0  0
 10 28  1  0  0  0  0
 11 12  1  0  0  0  0
 11 29  1  0  0  0  0
 11 33  1  0  0  0  0
 12 30  1  0  0  0  0
 12 31  1  0  0  0  0
 12 32  1  0  0  0  0
M  CHG  1  11   1
M  END
$$$$
