ZINC00057115
 OpenBabel08292219463D

 34 35  0  0  0  0  0  0  0  0999 V2000
   -0.2096    1.2122   -1.1342 C   0  0  0  0  0  0  0  0  0  0  0  0
   -0.0830   -0.1407   -0.4825 C   0  0  0  0  0  0  0  0  0  0  0  0
   -1.0664   -0.8016    0.1643 C   0  0  0  0  0  0  0  0  0  0  0  0
   -0.5371   -2.0337    0.6272 C   0  0  0  0  0  0  0  0  0  0  0  0
   -1.1423   -2.8859    1.2523 O   0  0  0  0  0  0  0  0  0  0  0  0
    0.7563   -2.0922    0.2504 N   0  0  0  0  0  0  0  0  0  0  0  0
    1.0515   -0.9152   -0.4500 N   0  0  0  0  0  0  0  0  0  0  0  0
    2.3459   -0.5691   -1.0426 C   0  0  0  0  0  0  0  0  0  0  0  0
    1.6431   -3.1421    0.5084 C   0  0  0  0  0  0  0  0  0  0  0  0
    2.9098   -2.8754    1.0119 C   0  0  0  0  0  0  0  0  0  0  0  0
    3.7833   -3.9147    1.2656 C   0  0  0  0  0  0  0  0  0  0  0  0
    3.3980   -5.2196    1.0187 C   0  0  0  0  0  0  0  0  0  0  0  0
    2.1377   -5.4885    0.5170 C   0  0  0  0  0  0  0  0  0  0  0  0
    1.2572   -4.4543    0.2670 C   0  0  0  0  0  0  0  0  0  0  0  0
   -2.3891   -0.3463    0.3484 N   0  0  0  0  0  0  0  0  0  0  0  0
   -3.5083   -1.0934   -0.2308 C   0  0  0  0  0  0  0  0  0  0  0  0
   -2.6433    0.8737    1.1187 C   0  0  0  0  0  0  0  0  0  0  0  0
    0.7356    1.4771   -1.6080 H   0  0  0  0  0  0  0  0  0  0  0  0
   -0.9971    1.1805   -1.8872 H   0  0  0  0  0  0  0  0  0  0  0  0
   -0.4589    1.9575   -0.3789 H   0  0  0  0  0  0  0  0  0  0  0  0
    2.9621   -0.0632   -0.2994 H   0  0  0  0  0  0  0  0  0  0  0  0
    2.8485   -1.4779   -1.3736 H   0  0  0  0  0  0  0  0  0  0  0  0
    2.1900    0.0912   -1.8957 H   0  0  0  0  0  0  0  0  0  0  0  0
    3.2115   -1.8565    1.2046 H   0  0  0  0  0  0  0  0  0  0  0  0
    4.7685   -3.7080    1.6568 H   0  0  0  0  0  0  0  0  0  0  0  0
    4.0829   -6.0305    1.2179 H   0  0  0  0  0  0  0  0  0  0  0  0
    1.8401   -6.5087    0.3246 H   0  0  0  0  0  0  0  0  0  0  0  0
    0.2713   -4.6654   -0.1200 H   0  0  0  0  0  0  0  0  0  0  0  0
   -3.9063   -1.7852    0.5117 H   0  0  0  0  0  0  0  0  0  0  0  0
   -4.2904   -0.3981   -0.5355 H   0  0  0  0  0  0  0  0  0  0  0  0
   -3.1609   -1.6529   -1.0993 H   0  0  0  0  0  0  0  0  0  0  0  0
   -1.6969    1.2874    1.4668 H   0  0  0  0  0  0  0  0  0  0  0  0
   -3.1484    1.6040    0.4864 H   0  0  0  0  0  0  0  0  0  0  0  0
   -3.2738    0.6374    1.9758 H   0  0  0  0  0  0  0  0  0  0  0  0
  1  2  1  0  0  0  0
  1 18  1  0  0  0  0
  1 19  1  0  0  0  0
  1 20  1  0  0  0  0
  2  7  1  0  0  0  0
  2  3  2  0  0  0  0
  3  4  1  0  0  0  0
  3 15  1  0  0  0  0
  4  5  2  0  0  0  0
  4  6  1  0  0  0  0
  6  7  1  0  0  0  0
  6  9  1  0  0  0  0
  7  8  1  0  0  0  0
  8 21  1  0  0  0  0
  8 22  1  0  0  0  0
  8 23  1  0  0  0  0
  9 14  2  0  0  0  0
  9 10  1  0  0  0  0
 10 11  2  0  0  0  0
 10 24  1  0  0  0  0
 11 12  1  0  0  0  0
 11 25  1  0  0  0  0
 12 13  2  0  0  0  0
 12 26  1  0  0  0  0
 13 14  1  0  0  0  0
 13 27  1  0  0  0  0
 14 28  1  0  0  0  0
 15 16  1  0  0  0  0
 15 17  1  0  0  0  0
 16 29  1  0  0  0  0
 16 30  1  0  0  0  0
 16 31  1  0  0  0  0
 17 32  1  0  0  0  0
 17 33  1  0  0  0  0
 17 34  1  0  0  0  0
M  END
$$$$
