ZINC04099200
 OpenBabel08292219463D

 41 43  0  0  0  0  0  0  0  0999 V2000
   -0.0173    1.4248    0.0099 C   0  0  0  0  0  0  0  0  0  0  0  0
    0.0021   -0.0041    0.0020 O   0  0  0  0  0  0  0  0  0  0  0  0
   -1.1997   -0.6372    0.0101 C   0  0  0  0  0  0  0  0  0  0  0  0
   -2.3874    0.0867    0.0195 C   0  0  0  0  0  0  0  0  0  0  0  0
   -3.5892   -0.5929    0.0270 C   0  0  0  0  0  0  0  0  0  0  0  0
   -3.6222   -1.9117    0.0259 N   0  0  0  0  0  0  0  0  0  0  0  0
   -2.5196   -2.6368    0.0171 C   0  0  0  0  0  0  0  0  0  0  0  0
   -1.2748   -2.0317    0.0033 C   0  0  0  0  0  0  0  0  0  0  0  0
   -0.1418   -2.7839   -0.0111 O   0  0  0  0  0  0  0  0  0  0  0  0
    0.4104   -3.1495    1.2552 C   0  0  0  0  0  0  0  0  0  0  0  0
   -2.6170   -4.1407    0.0163 C   0  0  0  0  0  0  0  0  0  0  0  0
   -2.6684   -4.7423   -1.6943 S   0  0  2  0  0  0  0  0  0  0  0  0
   -3.9053   -4.3738   -2.2890 O   0  0  0  0  0  0  0  0  0  0  0  0
   -2.7805   -6.4928   -1.5273 C   0  0  0  0  0  0  0  0  0  0  0  0
   -1.7166   -7.3392   -1.4561 N   0  0  0  0  0  0  0  0  0  0  0  0
   -0.7799   -7.0893   -1.4876 H   0  0  0  0  0  0  0  0  0  0  0  0
   -2.2181   -8.6193   -1.3304 C   0  0  0  0  0  0  0  0  0  0  0  0
   -1.6399   -9.8761   -1.2166 C   0  0  0  0  0  0  0  0  0  0  0  0
   -2.4476  -10.9932   -1.1041 C   0  0  0  0  0  0  0  0  0  0  0  0
   -3.8337  -10.8615   -1.1048 C   0  0  0  0  0  0  0  0  0  0  0  0
   -4.4153   -9.6312   -1.2161 C   0  0  0  0  0  0  0  0  0  0  0  0
   -3.6171   -8.4897   -1.3307 C   0  0  0  0  0  0  0  0  0  0  0  0
   -3.8917   -7.1642   -1.4484 N   0  0  0  0  0  0  0  0  0  0  0  0
   -1.8853  -12.2259   -0.9929 O   0  0  0  0  0  0  0  0  0  0  0  0
   -2.7762  -13.3375   -0.8802 C   0  0  0  0  0  0  0  0  0  0  0  0
   -3.5725  -13.1833    0.2597 F   0  0  0  0  0  0  0  0  0  0  0  0
   -3.5926  -13.3977   -2.0147 F   0  0  0  0  0  0  0  0  0  0  0  0
    1.0053    1.8021    0.0021 H   0  0  0  0  0  0  0  0  0  0  0  0
   -0.5445    1.7859   -0.8732 H   0  0  0  0  0  0  0  0  0  0  0  0
   -0.5275    1.7763    0.9067 H   0  0  0  0  0  0  0  0  0  0  0  0
   -2.3698    1.1666    0.0212 H   0  0  0  0  0  0  0  0  0  0  0  0
   -4.5152   -0.0371    0.0343 H   0  0  0  0  0  0  0  0  0  0  0  0
   -0.3207   -3.7319    1.8158 H   0  0  0  0  0  0  0  0  0  0  0  0
    1.3093   -3.7464    1.1009 H   0  0  0  0  0  0  0  0  0  0  0  0
    0.6638   -2.2490    1.8147 H   0  0  0  0  0  0  0  0  0  0  0  0
   -1.7486   -4.5613    0.5234 H   0  0  0  0  0  0  0  0  0  0  0  0
   -3.5248   -4.4463    0.5364 H   0  0  0  0  0  0  0  0  0  0  0  0
   -0.5650   -9.9811   -1.2162 H   0  0  0  0  0  0  0  0  0  0  0  0
   -4.4546  -11.7408   -1.0167 H   0  0  0  0  0  0  0  0  0  0  0  0
   -5.4914   -9.5402   -1.2151 H   0  0  0  0  0  0  0  0  0  0  0  0
   -2.1993  -14.2587   -0.7985 H   0  0  0  0  0  0  0  0  0  0  0  0
  1  2  1  0  0  0  0
  1 28  1  0  0  0  0
  1 29  1  0  0  0  0
  1 30  1  0  0  0  0
  2  3  1  0  0  0  0
  3  8  2  0  0  0  0
  3  4  1  0  0  0  0
  4  5  2  0  0  0  0
  4 31  1  0  0  0  0
  5  6  1  0  0  0  0
  5 32  1  0  0  0  0
  6  7  2  0  0  0  0
  7  8  1  0  0  0  0
  7 11  1  0  0  0  0
  8  9  1  0  0  0  0
  9 10  1  0  0  0  0
 10 33  1  0  0  0  0
 10 34  1  0  0  0  0
 10 35  1  0  0  0  0
 11 12  1  0  0  0  0
 11 36  1  0  0  0  0
 11 37  1  0  0  0  0
 12 13  2  1  0  0  0
 12 14  1  0  0  0  0
 14 23  2  0  0  0  0
 14 15  1  0  0  0  0
 15 16  1  0  0  0  0
 15 17  1  0  0  0  0
 17 22  2  0  0  0  0
 17 18  1  0  0  0  0
 18 19  2  0  0  0  0
 18 38  1  0  0  0  0
 19 20  1  0  0  0  0
 19 24  1  0  0  0  0
 20 21  2  0  0  0  0
 20 39  1  0  0  0  0
 21 22  1  0  0  0  0
 21 40  1  0  0  0  0
 22 23  1  0  0  0  0
 24 25  1  0  0  0  0
 25 26  1  0  0  0  0
 25 27  1  0  0  0  0
 25 41  1  0  0  0  0
M  END
$$$$
