ZINC21981378
 OpenBabel08292219463D

 32 33  0  0  1  0  0  0  0  0999 V2000
   -0.3110    1.3295    0.4677 C   0  0  0  0  0  0  0  0  0  0  0  0
   -0.1300   -0.1842    0.3384 C   0  0  2  0  0  0  0  0  0  0  0  0
    0.2059   -0.4251   -0.6702 H   0  0  0  0  0  0  0  0  0  0  0  0
   -1.4634   -0.8826    0.6123 C   0  0  0  0  0  0  0  0  0  0  0  0
   -1.3199   -2.3207    0.3722 N   0  0  0  0  0  0  0  0  0  0  0  0
   -1.6180   -2.9792   -0.7835 C   0  0  0  0  0  0  0  0  0  0  0  0
   -1.3698   -4.2495   -0.6481 N   0  0  0  0  0  0  0  0  0  0  0  0
   -0.8980   -4.4863    0.5995 C   0  0  0  0  0  0  0  0  0  0  0  0
   -0.8551   -3.2507    1.2674 C   0  0  0  0  0  0  0  0  0  0  0  0
   -0.4180   -3.2093    2.5217 N   0  0  0  0  0  0  0  0  0  0  0  0
   -0.0270   -4.3080    3.1325 C   0  0  0  0  0  0  0  0  0  0  0  0
   -0.0460   -5.4905    2.5453 N   0  0  0  0  0  0  0  0  0  0  0  0
   -0.4752   -5.6315    1.2953 C   0  0  0  0  0  0  0  0  0  0  0  0
   -0.4904   -6.8749    0.6879 N   0  0  0  0  0  0  0  0  0  0  0  0
    0.8443   -0.6299    1.2840 O   0  0  0  0  0  0  0  0  0  0  0  0
    2.1915   -0.5417    0.8159 C   0  0  0  0  0  0  0  0  0  0  0  0
    2.5109   -1.8860   -0.3733 P   0  0  1  0  0  0  0  0  0  0  0  0
    2.1596   -3.2429    0.2768 O   0  0  0  0  0  0  0  0  0  0  0  0
    1.6402   -1.6774   -1.6324 O   0  0  0  0  0  1  0  0  0  0  0  0
    4.0663   -1.8767   -0.7888 O   0  0  0  0  0  0  0  0  0  0  0  0
    0.6530    1.8227    0.3433 H   0  0  0  0  0  0  0  0  0  0  0  0
   -1.0003    1.6800   -0.3005 H   0  0  0  0  0  0  0  0  0  0  0  0
   -0.7148    1.5643    1.4526 H   0  0  0  0  0  0  0  0  0  0  0  0
   -1.7553   -0.7146    1.6489 H   0  0  0  0  0  0  0  0  0  0  0  0
   -2.2283   -0.4782   -0.0507 H   0  0  0  0  0  0  0  0  0  0  0  0
   -2.0037   -2.5152   -1.6793 H   0  0  0  0  0  0  0  0  0  0  0  0
    0.3228   -4.2395    4.1520 H   0  0  0  0  0  0  0  0  0  0  0  0
   -0.7953   -6.9633   -0.2287 H   0  0  0  0  0  0  0  0  0  0  0  0
   -0.1960   -7.6581    1.1787 H   0  0  0  0  0  0  0  0  0  0  0  0
    2.3439    0.4202    0.3264 H   0  0  0  0  0  0  0  0  0  0  0  0
    2.8759   -0.6326    1.6594 H   0  0  0  0  0  0  0  0  0  0  0  0
    4.3087   -2.5672   -1.4209 H   0  0  0  0  0  0  0  0  0  0  0  0
  1  2  1  0  0  0  0
  1 21  1  0  0  0  0
  1 22  1  0  0  0  0
  1 23  1  0  0  0  0
  2  3  1  6  0  0  0
  2  4  1  0  0  0  0
  2 15  1  0  0  0  0
  4  5  1  0  0  0  0
  4 24  1  0  0  0  0
  4 25  1  0  0  0  0
  5  9  1  0  0  0  0
  5  6  1  0  0  0  0
  6  7  2  0  0  0  0
  6 26  1  0  0  0  0
  7  8  1  0  0  0  0
  8 13  2  0  0  0  0
  8  9  1  0  0  0  0
  9 10  2  0  0  0  0
 10 11  1  0  0  0  0
 11 12  2  0  0  0  0
 11 27  1  0  0  0  0
 12 13  1  0  0  0  0
 13 14  1  0  0  0  0
 14 28  1  0  0  0  0
 14 29  1  0  0  0  0
 15 16  1  0  0  0  0
 16 17  1  0  0  0  0
 16 30  1  0  0  0  0
 16 31  1  0  0  0  0
 17 18  2  1  0  0  0
 17 19  1  0  0  0  0
 17 20  1  0  0  0  0
 20 32  1  0  0  0  0
M  END
$$$$
