ZINC00007563
 OpenBabel08292219463D

 32 33  0  0  0  0  0  0  0  0999 V2000
   -0.0804    1.5007   -0.1236 C   0  0  0  0  0  0  0  0  0  0  0  0
   -0.0435   -0.0056   -0.0963 C   0  0  0  0  0  0  0  0  0  0  0  0
   -0.2033   -0.7211   -1.2692 C   0  0  0  0  0  0  0  0  0  0  0  0
   -0.1696   -2.1012   -1.2479 C   0  0  0  0  0  0  0  0  0  0  0  0
    0.0252   -2.7713   -0.0463 C   0  0  0  0  0  0  0  0  0  0  0  0
    0.1854   -2.0496    1.1298 C   0  0  0  0  0  0  0  0  0  0  0  0
    0.1558   -0.6690    1.1004 C   0  0  0  0  0  0  0  0  0  0  0  0
    0.3964   -2.7719    2.4354 C   0  0  0  0  0  0  0  0  0  0  0  0
    1.8598   -3.0908    2.6023 C   0  0  0  0  0  0  0  0  0  0  0  0
    2.6575   -2.7619    1.7408 O   0  0  0  0  0  0  0  0  0  0  0  0
    2.2462   -3.6776    3.5987 O   0  0  0  0  0  1  0  0  0  0  0  0
    0.0595   -4.1676   -0.0209 N   0  0  0  0  0  0  0  0  0  0  0  0
   -1.0267   -4.8849    0.4929 C   0  0  0  0  0  0  0  0  0  0  0  0
   -2.2695   -4.2733    0.6183 C   0  0  0  0  0  0  0  0  0  0  0  0
   -3.3402   -4.9858    1.1261 C   0  0  0  0  0  0  0  0  0  0  0  0
   -3.1759   -6.3047    1.5093 C   0  0  0  0  0  0  0  0  0  0  0  0
   -1.9417   -6.9153    1.3863 C   0  0  0  0  0  0  0  0  0  0  0  0
   -0.8677   -6.2113    0.8737 C   0  0  0  0  0  0  0  0  0  0  0  0
    0.6796   -6.9818    0.7133 Cl  0  0  0  0  0  0  0  0  0  0  0  0
   -2.4303   -2.9849    0.2450 F   0  0  0  0  0  0  0  0  0  0  0  0
    0.9260    1.8860   -0.2871 H   0  0  0  0  0  0  0  0  0  0  0  0
   -0.7325    1.8336   -0.9312 H   0  0  0  0  0  0  0  0  0  0  0  0
   -0.4616    1.8722    0.8276 H   0  0  0  0  0  0  0  0  0  0  0  0
   -0.3550   -0.1996   -2.2027 H   0  0  0  0  0  0  0  0  0  0  0  0
   -0.2948   -2.6593   -2.1640 H   0  0  0  0  0  0  0  0  0  0  0  0
    0.2846   -0.1071    2.0136 H   0  0  0  0  0  0  0  0  0  0  0  0
    0.0665   -2.1383    3.2587 H   0  0  0  0  0  0  0  0  0  0  0  0
   -0.1794   -3.6974    2.4359 H   0  0  0  0  0  0  0  0  0  0  0  0
    0.8361   -4.6399   -0.3595 H   0  0  0  0  0  0  0  0  0  0  0  0
   -4.3058   -4.5120    1.2239 H   0  0  0  0  0  0  0  0  0  0  0  0
   -4.0138   -6.8588    1.9059 H   0  0  0  0  0  0  0  0  0  0  0  0
   -1.8173   -7.9451    1.6869 H   0  0  0  0  0  0  0  0  0  0  0  0
  1  2  1  0  0  0  0
  1 21  1  0  0  0  0
  1 22  1  0  0  0  0
  1 23  1  0  0  0  0
  2  7  2  0  0  0  0
  2  3  1  0  0  0  0
  3  4  2  0  0  0  0
  3 24  1  0  0  0  0
  4  5  1  0  0  0  0
  4 25  1  0  0  0  0
  5  6  2  0  0  0  0
  5 12  1  0  0  0  0
  6  7  1  0  0  0  0
  6  8  1  0  0  0  0
  7 26  1  0  0  0  0
  8  9  1  0  0  0  0
  8 27  1  0  0  0  0
  8 28  1  0  0  0  0
  9 10  2  0  0  0  0
  9 11  1  0  0  0  0
 12 13  1  0  0  0  0
 12 29  1  0  0  0  0
 13 18  2  0  0  0  0
 13 14  1  0  0  0  0
 14 15  2  0  0  0  0
 14 20  1  0  0  0  0
 15 16  1  0  0  0  0
 15 30  1  0  0  0  0
 16 17  2  0  0  0  0
 16 31  1  0  0  0  0
 17 18  1  0  0  0  0
 17 32  1  0  0  0  0
 18 19  1  0  0  0  0
M  END
$$$$
