ZINC02032320
 OpenBabel08292219463D

 57 59  0  0  1  0  0  0  0  0999 V2000
    1.3456   -5.7585    2.7304 C   0  0  0  0  0  0  0  0  0  0  0  0
    1.4509   -4.3614    3.2854 C   0  0  0  0  0  0  0  0  0  0  0  0
    0.9296   -3.2640    2.7150 C   0  0  0  0  0  0  0  0  0  0  0  0
    1.2645   -2.1311    3.5811 C   0  0  0  0  0  0  0  0  0  0  0  0
    1.9966   -2.6652    4.6557 C   0  0  0  0  0  0  0  0  0  0  0  0
    2.0926   -4.0227    4.4468 N   0  0  0  0  0  0  0  0  0  0  0  0
    2.5470   -4.6463    5.0346 H   0  0  0  0  0  0  0  0  0  0  0  0
    2.4594   -1.8170    5.6575 C   0  0  0  0  0  0  0  0  0  0  0  0
    2.1997   -0.4657    5.5910 C   0  0  0  0  0  0  0  0  0  0  0  0
    1.4827    0.0669    4.5292 C   0  0  0  0  0  0  0  0  0  0  0  0
    1.0076   -0.7558    3.5261 C   0  0  0  0  0  0  0  0  0  0  0  0
    0.3006   -0.2330    2.4901 O   0  0  0  0  0  0  0  0  0  0  0  0
    0.0786    1.1786    2.5031 C   0  0  0  0  0  0  0  0  0  0  0  0
   -0.7288    1.5792    1.2668 C   0  0  1  0  0  0  0  0  0  0  0  0
   -0.8222    2.6646    1.2299 H   0  0  0  0  0  0  0  0  0  0  0  0
   -0.0127    1.0858    0.0080 C   0  0  0  0  0  0  0  0  0  0  0  0
   -0.0624    1.1171   -2.4126 C   0  0  0  0  0  0  0  0  0  0  0  0
   -0.0422   -0.4124   -2.4445 C   0  0  0  0  0  0  0  0  0  0  0  0
   -0.8294    1.6425   -3.6277 C   0  0  0  0  0  0  0  0  0  0  0  0
    1.3725    1.6470   -2.4470 C   0  0  0  0  0  0  0  0  0  0  0  0
   -2.0504    0.9819    1.3374 O   0  0  0  0  0  0  0  0  0  0  0  0
   -3.0579    1.6547    0.7483 C   0  0  0  0  0  0  0  0  0  0  0  0
   -2.8384    2.7114    0.1909 O   0  0  0  0  0  0  0  0  0  0  0  0
   -4.4296    1.1073    0.7801 C   0  0  0  0  0  0  0  0  0  0  0  0
   -4.6844   -0.1099    1.4150 C   0  0  0  0  0  0  0  0  0  0  0  0
   -5.9686   -0.6127    1.4455 C   0  0  0  0  0  0  0  0  0  0  0  0
   -7.0011    0.0810    0.8394 C   0  0  0  0  0  0  0  0  0  0  0  0
   -6.7547    1.2850    0.2036 C   0  0  0  0  0  0  0  0  0  0  0  0
   -5.4762    1.8020    0.1705 C   0  0  0  0  0  0  0  0  0  0  0  0
    2.1930   -5.9530    2.0729 H   0  0  0  0  0  0  0  0  0  0  0  0
    1.3498   -6.4765    3.5505 H   0  0  0  0  0  0  0  0  0  0  0  0
    0.4181   -5.8564    2.1664 H   0  0  0  0  0  0  0  0  0  0  0  0
    0.3694   -3.2239    1.7925 H   0  0  0  0  0  0  0  0  0  0  0  0
    3.0227   -2.2182    6.4870 H   0  0  0  0  0  0  0  0  0  0  0  0
    2.5621    0.1868    6.3716 H   0  0  0  0  0  0  0  0  0  0  0  0
    1.2911    1.1290    4.4891 H   0  0  0  0  0  0  0  0  0  0  0  0
    1.0373    1.6972    2.4947 H   0  0  0  0  0  0  0  0  0  0  0  0
   -0.4741    1.4512    3.4021 H   0  0  0  0  0  0  0  0  0  0  0  0
    0.0021   -0.0041    0.0020 H   0  0  0  0  0  0  0  0  0  0  0  0
    1.0099    1.4631    0.0003 H   0  0  0  0  0  0  0  0  0  0  0  0
   -1.0644   -0.7899   -2.4200 H   0  0  0  0  0  0  0  0  0  0  0  0
    0.4481   -0.7503   -3.3575 H   0  0  0  0  0  0  0  0  0  0  0  0
    0.5042   -0.7867   -1.5788 H   0  0  0  0  0  0  0  0  0  0  0  0
   -0.8439    2.7322   -3.6049 H   0  0  0  0  0  0  0  0  0  0  0  0
   -0.3391    1.3046   -4.5407 H   0  0  0  0  0  0  0  0  0  0  0  0
   -1.8517    1.2650   -3.6032 H   0  0  0  0  0  0  0  0  0  0  0  0
    1.9189    1.2727   -1.5813 H   0  0  0  0  0  0  0  0  0  0  0  0
    1.8627    1.3091   -3.3600 H   0  0  0  0  0  0  0  0  0  0  0  0
    1.3580    2.7367   -2.4242 H   0  0  0  0  0  0  0  0  0  0  0  0
   -3.8786   -0.6546    1.8845 H   0  0  0  0  0  0  0  0  0  0  0  0
   -6.1679   -1.5519    1.9400 H   0  0  0  0  0  0  0  0  0  0  0  0
   -8.0040   -0.3190    0.8630 H   0  0  0  0  0  0  0  0  0  0  0  0
   -7.5651    1.8213   -0.2675 H   0  0  0  0  0  0  0  0  0  0  0  0
   -5.2852    2.7419   -0.3260 H   0  0  0  0  0  0  0  0  0  0  0  0
   -0.7320    1.5785   -1.1818 N   0  3  0  0  0  0  0  0  0  0  0  0
   -0.7459    2.6050   -1.1683 H   0  0  0  0  0  0  0  0  0  0  0  0
   -1.6952    1.2229   -1.1667 H   0  0  0  0  0  0  0  0  0  0  0  0
  1  2  1  0  0  0  0
  1 30  1  0  0  0  0
  1 31  1  0  0  0  0
  1 32  1  0  0  0  0
  2  6  1  0  0  0  0
  2  3  2  0  0  0  0
  3  4  1  0  0  0  0
  3 33  1  0  0  0  0
  4 11  2  0  0  0  0
  4  5  1  0  0  0  0
  5  6  1  0  0  0  0
  5  8  2  0  0  0  0
  6  7  1  0  0  0  0
  8  9  1  0  0  0  0
  8 34  1  0  0  0  0
  9 10  2  0  0  0  0
  9 35  1  0  0  0  0
 10 11  1  0  0  0  0
 10 36  1  0  0  0  0
 11 12  1  0  0  0  0
 12 13  1  0  0  0  0
 13 14  1  0  0  0  0
 13 37  1  0  0  0  0
 13 38  1  0  0  0  0
 14 15  1  6  0  0  0
 14 16  1  0  0  0  0
 14 21  1  0  0  0  0
 16 39  1  0  0  0  0
 16 40  1  0  0  0  0
 16 55  1  0  0  0  0
 17 18  1  0  0  0  0
 17 19  1  0  0  0  0
 17 20  1  0  0  0  0
 17 55  1  0  0  0  0
 18 41  1  0  0  0  0
 18 42  1  0  0  0  0
 18 43  1  0  0  0  0
 19 44  1  0  0  0  0
 19 45  1  0  0  0  0
 19 46  1  0  0  0  0
 20 47  1  0  0  0  0
 20 48  1  0  0  0  0
 20 49  1  0  0  0  0
 21 22  1  0  0  0  0
 22 23  2  0  0  0  0
 22 24  1  0  0  0  0
 24 29  2  0  0  0  0
 24 25  1  0  0  0  0
 25 26  2  0  0  0  0
 25 50  1  0  0  0  0
 26 27  1  0  0  0  0
 26 51  1  0  0  0  0
 27 28  2  0  0  0  0
 27 52  1  0  0  0  0
 28 29  1  0  0  0  0
 28 53  1  0  0  0  0
 29 54  1  0  0  0  0
 55 56  1  0  0  0  0
 55 57  1  0  0  0  0
M  CHG  1  55   1
M  END
$$$$
