ZINC00898188
 OpenBabel08292219463D

 50 55  0  0  1  0  0  0  0  0999 V2000
   -1.5668   11.3877    1.3656 C   0  0  0  0  0  0  0  0  0  0  0  0
   -0.7589   10.3084    0.6422 C   0  0  0  0  0  0  0  0  0  0  0  0
   -1.7008    9.4427   -0.1970 C   0  0  1  0  0  0  0  0  0  0  0  0
   -2.2699   10.0724   -0.8808 H   0  0  0  0  0  0  0  0  0  0  0  0
   -0.8837    8.4087   -0.9981 C   0  0  2  0  0  0  0  0  0  0  0  0
   -0.2976    8.8984   -1.7758 H   0  0  0  0  0  0  0  0  0  0  0  0
   -1.9043    7.4527   -1.5903 C   0  0  0  0  0  0  0  0  0  0  0  0
   -2.4388    6.5563   -0.4498 C   0  0  1  0  0  0  0  0  0  0  0  0
   -3.5087    6.4056   -0.5941 H   0  0  0  0  0  0  0  0  0  0  0  0
   -1.7464    5.2385   -0.5644 C   0  0  1  0  0  0  0  0  0  0  0  0
   -1.6011    5.0385   -1.6260 H   0  0  0  0  0  0  0  0  0  0  0  0
   -0.3309    5.2580    0.0650 C   0  0  2  0  0  0  0  0  0  0  0  0
   -0.4798    5.7682    1.5178 C   0  0  0  0  0  0  0  0  0  0  0  0
   -0.7991    7.2679    1.2179 C   0  0  1  0  0  0  0  0  0  0  0  0
   -0.6027    7.9243    2.0656 H   0  0  0  0  0  0  0  0  0  0  0  0
    0.0262    7.6484   -0.0348 C   0  0  1  0  0  0  0  0  0  0  0  0
    0.8824    8.2646    0.2399 H   0  0  0  0  0  0  0  0  0  0  0  0
    0.5047    6.3160   -0.6624 C   0  0  1  0  0  0  0  0  0  0  0  0
    0.3033    6.3034   -1.7335 H   0  0  0  0  0  0  0  0  0  0  0  0
    1.8973    6.1154   -0.4127 O   0  0  0  0  0  0  0  0  0  0  0  0
   -2.2275    7.2713    0.8106 N   0  0  1  0  0  0  0  0  0  0  0  0
   -2.6602    8.6778    0.7236 C   0  0  2  0  0  0  0  0  0  0  0  0
   -2.6461    9.1254    1.7174 H   0  0  0  0  0  0  0  0  0  0  0  0
   -3.9850    8.7381    0.1913 O   0  0  0  0  0  0  0  0  0  0  0  0
    0.0212    3.8251    0.0290 C   0  0  0  0  0  0  0  0  0  0  0  0
    1.2245    3.1530    0.0110 C   0  0  0  0  0  0  0  0  0  0  0  0
    1.1834    1.7644    0.0002 C   0  0  0  0  0  0  0  0  0  0  0  0
   -0.0126    1.0758    0.0080 C   0  0  0  0  0  0  0  0  0  0  0  0
   -1.2327    1.7348    0.0174 C   0  0  0  0  0  0  0  0  0  0  0  0
   -1.2092    3.1241    0.0293 C   0  0  0  0  0  0  0  0  0  0  0  0
   -2.2939    4.0224    0.0306 N   0  0  0  0  0  0  0  0  0  0  0  0
   -3.4100    3.5011   -0.7697 C   0  0  0  0  0  0  0  0  0  0  0  0
   -0.8957   12.0044    1.9634 H   0  0  0  0  0  0  0  0  0  0  0  0
   -2.0775   12.0119    0.6324 H   0  0  0  0  0  0  0  0  0  0  0  0
   -2.3028   10.9156    2.0164 H   0  0  0  0  0  0  0  0  0  0  0  0
   -0.2482    9.6842    1.3754 H   0  0  0  0  0  0  0  0  0  0  0  0
   -0.0229   10.7806   -0.0086 H   0  0  0  0  0  0  0  0  0  0  0  0
   -1.4257    6.8381   -2.3528 H   0  0  0  0  0  0  0  0  0  0  0  0
   -2.7230    8.0221   -2.0303 H   0  0  0  0  0  0  0  0  0  0  0  0
   -1.2970    5.2637    2.0334 H   0  0  0  0  0  0  0  0  0  0  0  0
    0.4545    5.6696    2.0704 H   0  0  0  0  0  0  0  0  0  0  0  0
    2.4674    6.7980   -0.7926 H   0  0  0  0  0  0  0  0  0  0  0  0
   -4.3342    9.6358    0.1063 H   0  0  0  0  0  0  0  0  0  0  0  0
    2.1639    3.6858    0.0058 H   0  0  0  0  0  0  0  0  0  0  0  0
    2.1102    1.2101   -0.0142 H   0  0  0  0  0  0  0  0  0  0  0  0
    0.0021   -0.0041    0.0020 H   0  0  0  0  0  0  0  0  0  0  0  0
   -2.1649    1.1894    0.0195 H   0  0  0  0  0  0  0  0  0  0  0  0
   -3.7415    2.5494   -0.3545 H   0  0  0  0  0  0  0  0  0  0  0  0
   -4.2350    4.2132   -0.7499 H   0  0  0  0  0  0  0  0  0  0  0  0
   -3.0817    3.3540   -1.7986 H   0  0  0  0  0  0  0  0  0  0  0  0
  1  2  1  0  0  0  0
  1 33  1  0  0  0  0
  1 34  1  0  0  0  0
  1 35  1  0  0  0  0
  2  3  1  0  0  0  0
  2 36  1  0  0  0  0
  2 37  1  0  0  0  0
  3  4  1  6  0  0  0
  3 22  1  0  0  0  0
  3  5  1  0  0  0  0
  5  6  1  6  0  0  0
  5 16  1  0  0  0  0
  5  7  1  0  0  0  0
  7  8  1  0  0  0  0
  7 38  1  0  0  0  0
  7 39  1  0  0  0  0
  8  9  1  6  0  0  0
  8 21  1  0  0  0  0
  8 10  1  0  0  0  0
 10 11  1  6  0  0  0
 10 31  1  0  0  0  0
 10 12  1  0  0  0  0
 12 18  1  0  0  0  0
 12 13  1  0  0  0  0
 12 25  1  6  0  0  0
 13 14  1  0  0  0  0
 13 40  1  0  0  0  0
 13 41  1  0  0  0  0
 14 15  1  1  0  0  0
 14 16  1  0  0  0  0
 14 21  1  0  0  0  0
 16 17  1  1  0  0  0
 16 18  1  0  0  0  0
 18 19  1  6  0  0  0
 18 20  1  0  0  0  0
 20 42  1  0  0  0  0
 21 22  1  0  0  0  0
 22 23  1  0  0  0  0
 22 24  1  0  0  0  0
 24 43  1  0  0  0  0
 25 30  2  0  0  0  0
 25 26  1  0  0  0  0
 26 27  2  0  0  0  0
 26 44  1  0  0  0  0
 27 28  1  0  0  0  0
 27 45  1  0  0  0  0
 28 29  2  0  0  0  0
 28 46  1  0  0  0  0
 29 30  1  0  0  0  0
 29 47  1  0  0  0  0
 30 31  1  0  0  0  0
 31 32  1  0  0  0  0
 32 48  1  0  0  0  0
 32 49  1  0  0  0  0
 32 50  1  0  0  0  0
M  END
$$$$
