ZINC02021799
 OpenBabel08292219463D

 46 47  0  0  1  0  0  0  0  0999 V2000
   -0.0187    1.5258    0.0104 C   0  0  0  0  0  0  0  0  0  0  0  0
    0.0021   -0.0041    0.0020 C   0  0  0  0  0  0  0  0  0  0  0  0
    0.6897   -0.4778   -1.2066 N   0  3  2  0  0  0  0  0  0  0  0  0
   -0.0977   -0.1111   -2.4030 C   0  0  0  0  0  0  0  0  0  0  0  0
    0.0876   -1.3002   -3.3783 C   0  0  0  0  0  0  0  0  0  0  0  0
    0.0948   -2.5070   -2.4033 C   0  0  0  0  0  0  0  0  0  0  0  0
    0.8183   -1.9459   -1.1611 C   0  0  1  0  0  0  0  0  0  0  0  0
    0.3514   -2.3311   -0.2546 H   0  0  0  0  0  0  0  0  0  0  0  0
    2.2961   -2.3403   -1.1970 C   0  0  0  0  0  0  0  0  0  0  0  0
    3.0089   -1.6628   -0.1111 N   0  0  0  0  0  0  0  0  0  0  0  0
    4.3318   -1.8612    0.0535 C   0  0  0  0  0  0  0  0  0  0  0  0
    4.9339   -2.6026   -0.6995 O   0  0  0  0  0  0  0  0  0  0  0  0
    5.0481   -1.1803    1.1449 C   0  0  0  0  0  0  0  0  0  0  0  0
    5.1651   -1.7913    2.4021 C   0  0  0  0  0  0  0  0  0  0  0  0
    5.8414   -1.1425    3.4220 C   0  0  0  0  0  0  0  0  0  0  0  0
    6.4005    0.1034    3.2045 C   0  0  0  0  0  0  0  0  0  0  0  0
    6.2909    0.7153    1.9693 C   0  0  0  0  0  0  0  0  0  0  0  0
    5.6232    0.0809    0.9331 C   0  0  0  0  0  0  0  0  0  0  0  0
    5.5216    0.6806   -0.2797 O   0  0  0  0  0  0  0  0  0  0  0  0
    4.3878    1.5236   -0.4937 C   0  0  0  0  0  0  0  0  0  0  0  0
    7.0607    2.4199    1.6905 Br  0  0  0  0  0  0  0  0  0  0  0  0
    4.6172   -3.0135    2.6186 O   0  0  0  0  0  0  0  0  0  0  0  0
    4.7762   -3.5738    3.9235 C   0  0  0  0  0  0  0  0  0  0  0  0
    1.0039    1.9031    0.0027 H   0  0  0  0  0  0  0  0  0  0  0  0
   -0.5459    1.8868   -0.8726 H   0  0  0  0  0  0  0  0  0  0  0  0
   -0.5289    1.8773    0.9072 H   0  0  0  0  0  0  0  0  0  0  0  0
    0.5293   -0.3651    0.8851 H   0  0  0  0  0  0  0  0  0  0  0  0
   -1.0205   -0.3814    0.0098 H   0  0  0  0  0  0  0  0  0  0  0  0
   -1.1498    0.0064   -2.1435 H   0  0  0  0  0  0  0  0  0  0  0  0
    0.2896    0.8066   -2.8456 H   0  0  0  0  0  0  0  0  0  0  0  0
   -0.7473   -1.3669   -4.0759 H   0  0  0  0  0  0  0  0  0  0  0  0
    1.0351   -1.2237   -3.9118 H   0  0  0  0  0  0  0  0  0  0  0  0
   -0.9229   -2.8070   -2.1539 H   0  0  0  0  0  0  0  0  0  0  0  0
    0.6508   -3.3426   -2.8285 H   0  0  0  0  0  0  0  0  0  0  0  0
    2.3873   -3.4195   -1.0737 H   0  0  0  0  0  0  0  0  0  0  0  0
    2.7275   -2.0462   -2.1538 H   0  0  0  0  0  0  0  0  0  0  0  0
    2.5287   -1.0715    0.4895 H   0  0  0  0  0  0  0  0  0  0  0  0
    5.9322   -1.6112    4.3907 H   0  0  0  0  0  0  0  0  0  0  0  0
    6.9262    0.6024    4.0052 H   0  0  0  0  0  0  0  0  0  0  0  0
    3.4743    0.9403   -0.3780 H   0  0  0  0  0  0  0  0  0  0  0  0
    4.3956    2.3347    0.2344 H   0  0  0  0  0  0  0  0  0  0  0  0
    4.4287    1.9388   -1.5007 H   0  0  0  0  0  0  0  0  0  0  0  0
    5.8378   -3.6855    4.1441 H   0  0  0  0  0  0  0  0  0  0  0  0
    4.3194   -2.9134    4.6606 H   0  0  0  0  0  0  0  0  0  0  0  0
    4.2926   -4.5500    3.9611 H   0  0  0  0  0  0  0  0  0  0  0  0
    1.6056   -0.0583   -1.2636 H   0  0  0  0  0  0  0  0  0  0  0  0
  1  2  1  0  0  0  0
  1 24  1  0  0  0  0
  1 25  1  0  0  0  0
  1 26  1  0  0  0  0
  2  3  1  0  0  0  0
  2 27  1  0  0  0  0
  2 28  1  0  0  0  0
  3  7  1  0  0  0  0
  3  4  1  0  0  0  0
  3 46  1  6  0  0  0
  4  5  1  0  0  0  0
  4 29  1  0  0  0  0
  4 30  1  0  0  0  0
  5  6  1  0  0  0  0
  5 31  1  0  0  0  0
  5 32  1  0  0  0  0
  6  7  1  0  0  0  0
  6 33  1  0  0  0  0
  6 34  1  0  0  0  0
  7  8  1  1  0  0  0
  7  9  1  0  0  0  0
  9 10  1  0  0  0  0
  9 35  1  0  0  0  0
  9 36  1  0  0  0  0
 10 11  1  0  0  0  0
 10 37  1  0  0  0  0
 11 12  2  0  0  0  0
 11 13  1  0  0  0  0
 13 18  2  0  0  0  0
 13 14  1  0  0  0  0
 14 15  2  0  0  0  0
 14 22  1  0  0  0  0
 15 16  1  0  0  0  0
 15 38  1  0  0  0  0
 16 17  2  0  0  0  0
 16 39  1  0  0  0  0
 17 18  1  0  0  0  0
 17 21  1  0  0  0  0
 18 19  1  0  0  0  0
 19 20  1  0  0  0  0
 20 40  1  0  0  0  0
 20 41  1  0  0  0  0
 20 42  1  0  0  0  0
 22 23  1  0  0  0  0
 23 43  1  0  0  0  0
 23 44  1  0  0  0  0
 23 45  1  0  0  0  0
M  CHG  1   3   1
M  END
$$$$
