ZINC00897225
 OpenBabel08292219463D

 28 29  0  0  0  0  0  0  0  0999 V2000
   -0.0168    1.3895    0.0097 C   0  0  0  0  0  0  0  0  0  0  0  0
    1.1657    2.0999    0.0022 C   0  0  0  0  0  0  0  0  0  0  0  0
    2.3780    1.4353   -0.0159 C   0  0  0  0  0  0  0  0  0  0  0  0
    2.4050    0.0521   -0.0345 C   0  0  0  0  0  0  0  0  0  0  0  0
    1.2251   -0.6611   -0.0298 C   0  0  0  0  0  0  0  0  0  0  0  0
    0.0021   -0.0041    0.0020 C   0  0  0  0  0  0  0  0  0  0  0  0
   -1.2074   -0.6921    0.0496 N   0  0  0  0  0  0  0  0  0  0  0  0
   -1.3613   -2.0764   -0.3910 C   0  0  0  0  0  0  0  0  0  0  0  0
   -0.3067   -2.8947    0.2410 N   0  0  0  0  0  0  0  0  0  0  0  0
    1.2639   -2.4277   -0.0730 S   0  0  0  0  0  0  0  0  0  0  0  0
    1.5500   -2.8040   -1.4130 O   0  0  0  0  0  0  0  0  0  0  0  0
    2.0511   -2.8528    1.0310 O   0  0  0  0  0  0  0  0  0  0  0  0
    3.8853    2.3480   -0.0157 S   0  0  0  0  0  0  0  0  0  0  0  0
    3.7767    3.3113    1.0233 O   0  0  0  0  0  0  0  0  0  0  0  0
    4.9375    1.3942   -0.0634 O   0  0  0  0  0  0  0  0  0  0  0  0
    3.9467    3.1920   -1.4392 N   0  0  0  0  0  0  0  0  0  0  0  0
    1.1360    3.6065    0.0133 C   0  0  0  0  0  0  0  0  0  0  0  0
   -0.1919    4.0467    0.0305 F   0  0  0  0  0  0  0  0  0  0  0  0
    1.7982    4.0776    1.1520 F   0  0  0  0  0  0  0  0  0  0  0  0
    1.7740    4.0940   -1.1324 F   0  0  0  0  0  0  0  0  0  0  0  0
   -0.9603    1.9150    0.0260 H   0  0  0  0  0  0  0  0  0  0  0  0
    3.3507   -0.4691   -0.0532 H   0  0  0  0  0  0  0  0  0  0  0  0
   -1.9874   -0.2289    0.3930 H   0  0  0  0  0  0  0  0  0  0  0  0
   -2.3412   -2.4484   -0.0920 H   0  0  0  0  0  0  0  0  0  0  0  0
   -1.2634   -2.1279   -1.4754 H   0  0  0  0  0  0  0  0  0  0  0  0
   -0.5146   -3.6569    0.8039 H   0  0  0  0  0  0  0  0  0  0  0  0
    3.2221    3.1163   -2.0796 H   0  0  0  0  0  0  0  0  0  0  0  0
    4.7072    3.7622   -1.6325 H   0  0  0  0  0  0  0  0  0  0  0  0
  1  6  2  0  0  0  0
  1  2  1  0  0  0  0
  1 21  1  0  0  0  0
  2  3  2  0  0  0  0
  2 17  1  0  0  0  0
  3  4  1  0  0  0  0
  3 13  1  0  0  0  0
  4  5  2  0  0  0  0
  4 22  1  0  0  0  0
  5 10  1  0  0  0  0
  5  6  1  0  0  0  0
  6  7  1  0  0  0  0
  7  8  1  0  0  0  0
  7 23  1  0  0  0  0
  8  9  1  0  0  0  0
  8 24  1  0  0  0  0
  8 25  1  0  0  0  0
  9 10  1  0  0  0  0
  9 26  1  0  0  0  0
 10 11  2  0  0  0  0
 10 12  2  0  0  0  0
 13 14  2  0  0  0  0
 13 15  2  0  0  0  0
 13 16  1  0  0  0  0
 16 27  1  0  0  0  0
 16 28  1  0  0  0  0
 17 18  1  0  0  0  0
 17 19  1  0  0  0  0
 17 20  1  0  0  0  0
M  END
$$$$
