ZINC01530806
 OpenBabel08292219463D

 21 21  0  0  1  0  0  0  0  0999 V2000
   -0.0187    1.5258    0.0104 C   0  0  0  0  0  0  0  0  0  0  0  0
    0.0021   -0.0041    0.0020 C   0  0  0  0  0  0  0  0  0  0  0  0
   -1.4333   -0.5336    0.0129 C   0  0  2  0  0  0  0  0  0  0  0  0
   -1.4455   -2.0713   -0.1063 C   0  0  0  0  0  0  0  0  0  0  0  0
   -2.1968   -2.3211   -1.3958 C   0  0  0  0  0  0  0  0  0  0  0  0
   -2.4355   -3.4112   -1.8695 O   0  0  0  0  0  0  0  0  0  0  0  0
   -2.5566   -1.1476   -1.9303 N   0  0  0  0  0  0  0  0  0  0  0  0
   -2.1790   -0.0763   -1.2218 C   0  0  0  0  0  0  0  0  0  0  0  0
   -2.3999    1.0773   -1.5216 O   0  0  0  0  0  0  0  0  0  0  0  0
   -2.1623   -0.0827    1.2802 C   0  0  0  0  0  0  0  0  0  0  0  0
    1.0039    1.9031    0.0027 H   0  0  0  0  0  0  0  0  0  0  0  0
   -0.5459    1.8868   -0.8726 H   0  0  0  0  0  0  0  0  0  0  0  0
   -0.5289    1.8773    0.9072 H   0  0  0  0  0  0  0  0  0  0  0  0
    0.5123   -0.3556   -0.8948 H   0  0  0  0  0  0  0  0  0  0  0  0
    0.5293   -0.3651    0.8851 H   0  0  0  0  0  0  0  0  0  0  0  0
   -0.4289   -2.4589   -0.1733 H   0  0  0  0  0  0  0  0  0  0  0  0
   -1.9724   -2.5173    0.7373 H   0  0  0  0  0  0  0  0  0  0  0  0
   -3.0499   -1.0792   -2.7627 H   0  0  0  0  0  0  0  0  0  0  0  0
   -2.1869    1.0064    1.3171 H   0  0  0  0  0  0  0  0  0  0  0  0
   -3.1815   -0.4689    1.2700 H   0  0  0  0  0  0  0  0  0  0  0  0
   -1.6379   -0.4642    2.1563 H   0  0  0  0  0  0  0  0  0  0  0  0
  1  2  1  0  0  0  0
  1 11  1  0  0  0  0
  1 12  1  0  0  0  0
  1 13  1  0  0  0  0
  2 14  1  0  0  0  0
  2 15  1  0  0  0  0
  3  2  1  6  0  0  0
  3  8  1  0  0  0  0
  3  4  1  0  0  0  0
  3 10  1  0  0  0  0
  4  5  1  0  0  0  0
  4 16  1  0  0  0  0
  4 17  1  0  0  0  0
  5  6  2  0  0  0  0
  5  7  1  0  0  0  0
  7  8  1  0  0  0  0
  7 18  1  0  0  0  0
  8  9  2  0  0  0  0
 10 19  1  0  0  0  0
 10 20  1  0  0  0  0
 10 21  1  0  0  0  0
M  END
$$$$
