ZINC38212689
 OpenBabel08292219463D

 12 12  0  0  0  0  0  0  0  0999 V2000
   -0.0165    1.3666    0.0096 C   0  0  0  0  0  0  0  0  0  0  0  0
    1.1481    2.0506    0.0021 C   0  0  0  0  0  0  0  0  0  0  0  0
    2.3695    1.3316   -0.0134 C   0  0  0  0  0  0  0  0  0  0  0  0
    3.4324    1.9260   -0.0200 O   0  0  0  0  0  0  0  0  0  0  0  0
    2.3438   -0.0164   -0.0204 N   0  0  0  0  0  0  0  0  0  0  0  0
    3.1758   -0.5151   -0.0307 H   0  0  0  0  0  0  0  0  0  0  0  0
    1.1691   -0.6733   -0.0127 C   0  0  0  0  0  0  0  0  0  0  0  0
    1.1625   -1.8892   -0.0192 O   0  0  0  0  0  0  0  0  0  0  0  0
    0.0021   -0.0041    0.0020 N   0  0  0  0  0  0  0  0  0  0  0  0
   -0.8339   -0.4960    0.0077 H   0  0  0  0  0  0  0  0  0  0  0  0
    1.1488    3.4016    0.0089 F   0  0  0  0  0  0  0  0  0  0  0  0
   -0.9573    1.8966    0.0259 H   0  0  0  0  0  0  0  0  0  0  0  0
  1  9  1  0  0  0  0
  1  2  2  0  0  0  0
  1 12  1  0  0  0  0
  2  3  1  0  0  0  0
  2 11  1  0  0  0  0
  3  4  2  0  0  0  0
  3  5  1  0  0  0  0
  5  6  1  0  0  0  0
  5  7  1  0  0  0  0
  7  8  2  0  0  0  0
  7  9  1  0  0  0  0
  9 10  1  0  0  0  0
M  END
$$$$
