ZINC30691727
 OpenBabel08292219463D

 63 67  0  0  1  0  0  0  0  0999 V2000
   -2.9656    6.5546   -8.4273 C   0  0  0  0  0  0  0  0  0  0  0  0
   -1.6613    6.8167   -8.0507 C   0  0  0  0  0  0  0  0  0  0  0  0
   -1.1638    6.2966   -6.8716 C   0  0  0  0  0  0  0  0  0  0  0  0
   -1.9741    5.5107   -6.0651 C   0  0  0  0  0  0  0  0  0  0  0  0
   -3.2806    5.2444   -6.4480 C   0  0  0  0  0  0  0  0  0  0  0  0
   -3.7753    5.7719   -7.6251 C   0  0  0  0  0  0  0  0  0  0  0  0
   -1.4870    4.9979   -4.9046 O   0  0  0  0  0  0  0  0  0  0  0  0
   -2.3777    4.1977   -4.1246 C   0  0  0  0  0  0  0  0  0  0  0  0
   -1.6572    3.7128   -2.8650 C   0  0  0  0  0  0  0  0  0  0  0  0
   -2.6108    2.8561   -2.0298 C   0  0  0  0  0  0  0  0  0  0  0  0
   -1.9190    2.3905   -0.8204 N   0  3  2  0  0  0  0  0  0  0  0  0
   -0.7581    1.5954   -1.2275 C   0  0  0  0  0  0  0  0  0  0  0  0
   -0.0127    1.0858    0.0080 C   0  0  0  0  0  0  0  0  0  0  0  0
   -0.7362    1.5833    1.2663 C   0  0  2  0  0  0  0  0  0  0  0  0
   -2.1794    1.0633    1.2321 C   0  0  0  0  0  0  0  0  0  0  0  0
   -2.8579    1.5739   -0.0476 C   0  0  0  0  0  0  0  0  0  0  0  0
   -0.7766    3.1167    1.2267 C   0  0  2  0  0  0  0  0  0  0  0  0
   -1.2660    3.5285    2.1216 H   0  0  0  0  0  0  0  0  0  0  0  0
   -1.4969    3.5615   -0.0482 C   0  0  0  0  0  0  0  0  0  0  0  0
    0.5791    3.6367    1.2262 O   0  0  0  0  0  0  0  0  0  0  0  0
    0.7695    4.8425    1.7845 C   0  0  0  0  0  0  0  0  0  0  0  0
   -0.1657    5.4435    2.2578 O   0  0  0  0  0  0  0  0  0  0  0  0
    2.1496    5.4466    1.8208 C   0  0  1  0  0  0  0  0  0  0  0  0
    2.4178    6.1650    0.5235 C   0  0  0  0  0  0  0  0  0  0  0  0
    2.9730    5.6881   -0.6174 C   0  0  0  0  0  0  0  0  0  0  0  0
    3.1197    6.5380   -1.6976 C   0  0  0  0  0  0  0  0  0  0  0  0
    2.7138    7.8260   -1.5805 C   0  0  0  0  0  0  0  0  0  0  0  0
    2.0940    7.8671    0.0932 S   0  0  0  0  0  0  0  0  0  0  0  0
    2.2403    6.4239    2.9644 C   0  0  0  0  0  0  0  0  0  0  0  0
    2.6085    6.2019    4.2498 C   0  0  0  0  0  0  0  0  0  0  0  0
    2.6216    7.2625    5.1361 C   0  0  0  0  0  0  0  0  0  0  0  0
    2.2555    8.4913    4.6961 C   0  0  0  0  0  0  0  0  0  0  0  0
    1.8829    8.1730    2.9794 S   0  0  0  0  0  0  0  0  0  0  0  0
    3.1181    4.4113    2.0011 O   0  0  0  0  0  0  0  0  0  0  0  0
   -3.3527    6.9621   -9.3495 H   0  0  0  0  0  0  0  0  0  0  0  0
   -1.0311    7.4290   -8.6787 H   0  0  0  0  0  0  0  0  0  0  0  0
   -0.1449    6.5014   -6.5780 H   0  0  0  0  0  0  0  0  0  0  0  0
   -3.9120    4.6291   -5.8241 H   0  0  0  0  0  0  0  0  0  0  0  0
   -4.7940    5.5691   -7.9211 H   0  0  0  0  0  0  0  0  0  0  0  0
   -3.2539    4.7978   -3.8378 H   0  0  0  0  0  0  0  0  0  0  0  0
   -2.7052    3.3303   -4.7166 H   0  0  0  0  0  0  0  0  0  0  0  0
   -0.7810    3.1127   -3.1518 H   0  0  0  0  0  0  0  0  0  0  0  0
   -1.3297    4.5802   -2.2730 H   0  0  0  0  0  0  0  0  0  0  0  0
   -3.4869    3.4562   -1.7430 H   0  0  0  0  0  0  0  0  0  0  0  0
   -2.9383    1.9887   -2.6217 H   0  0  0  0  0  0  0  0  0  0  0  0
   -1.0940    0.7365   -1.8271 H   0  0  0  0  0  0  0  0  0  0  0  0
   -0.0792    2.2186   -1.8280 H   0  0  0  0  0  0  0  0  0  0  0  0
    0.0032   -0.0140   -0.0011 H   0  0  0  0  0  0  0  0  0  0  0  0
    1.0189    1.4675   -0.0028 H   0  0  0  0  0  0  0  0  0  0  0  0
   -0.2195    1.2326    2.1718 H   0  0  0  0  0  0  0  0  0  0  0  0
   -2.1730   -0.0367    1.2377 H   0  0  0  0  0  0  0  0  0  0  0  0
   -2.7228    1.4313    2.1149 H   0  0  0  0  0  0  0  0  0  0  0  0
   -3.7339    2.1810    0.2246 H   0  0  0  0  0  0  0  0  0  0  0  0
   -3.1813    0.7146   -0.6535 H   0  0  0  0  0  0  0  0  0  0  0  0
   -0.8135    4.1738   -0.6548 H   0  0  0  0  0  0  0  0  0  0  0  0
   -2.3796    4.1584    0.2247 H   0  0  0  0  0  0  0  0  0  0  0  0
    3.2934    4.6588   -0.6824 H   0  0  0  0  0  0  0  0  0  0  0  0
    3.5554    6.1824   -2.6196 H   0  0  0  0  0  0  0  0  0  0  0  0
    2.7545    8.6209   -2.3104 H   0  0  0  0  0  0  0  0  0  0  0  0
    2.8903    5.2116    4.5760 H   0  0  0  0  0  0  0  0  0  0  0  0
    2.9147    7.1136    6.1648 H   0  0  0  0  0  0  0  0  0  0  0  0
    2.2032    9.4215    5.2423 H   0  0  0  0  0  0  0  0  0  0  0  0
    4.1880    4.6618    2.0523 H   0  0  0  0  0  0  0  0  0  0  0  0
  1  6  2  0  0  0  0
  1  2  1  0  0  0  0
  1 35  1  0  0  0  0
  2  3  2  0  0  0  0
  2 36  1  0  0  0  0
  3  4  1  0  0  0  0
  3 37  1  0  0  0  0
  4  5  2  0  0  0  0
  4  7  1  0  0  0  0
  5  6  1  0  0  0  0
  5 38  1  0  0  0  0
  6 39  1  0  0  0  0
  7  8  1  0  0  0  0
  8  9  1  0  0  0  0
  8 40  1  0  0  0  0
  8 41  1  0  0  0  0
  9 10  1  0  0  0  0
  9 42  1  0  0  0  0
  9 43  1  0  0  0  0
 10 44  1  0  0  0  0
 10 45  1  0  0  0  0
 11 10  1  6  0  0  0
 11 16  1  0  0  0  0
 11 19  1  0  0  0  0
 11 12  1  0  0  0  0
 12 13  1  0  0  0  0
 12 46  1  0  0  0  0
 12 47  1  0  0  0  0
 13 14  1  0  0  0  0
 13 48  1  0  0  0  0
 13 49  1  0  0  0  0
 14 15  1  0  0  0  0
 14 17  1  0  0  0  0
 14 50  1  1  0  0  0
 15 16  1  0  0  0  0
 15 51  1  0  0  0  0
 15 52  1  0  0  0  0
 16 53  1  0  0  0  0
 16 54  1  0  0  0  0
 17 18  1  1  0  0  0
 17 19  1  0  0  0  0
 17 20  1  0  0  0  0
 19 55  1  0  0  0  0
 19 56  1  0  0  0  0
 20 21  1  0  0  0  0
 21 22  2  0  0  0  0
 23 21  1  6  0  0  0
 23 24  1  0  0  0  0
 23 29  1  0  0  0  0
 23 34  1  0  0  0  0
 24 28  1  0  0  0  0
 24 25  2  0  0  0  0
 25 26  1  0  0  0  0
 25 57  1  0  0  0  0
 26 27  2  0  0  0  0
 26 58  1  0  0  0  0
 27 28  1  0  0  0  0
 27 59  1  0  0  0  0
 29 33  1  0  0  0  0
 29 30  2  0  0  0  0
 30 31  1  0  0  0  0
 30 60  1  0  0  0  0
 31 32  2  0  0  0  0
 31 61  1  0  0  0  0
 32 33  1  0  0  0  0
 32 62  1  0  0  0  0
 34 63  1  0  0  0  0
M  CHG  1  11   1
M  END
$$$$
