ZINC01530803
 OpenBabel08292219463D

 31 31  0  0  0  0  0  0  0  0999 V2000
   -0.0167    1.3781    0.0096 C   0  0  0  0  0  0  0  0  0  0  0  0
    1.1709    2.0855    0.0021 C   0  0  0  0  0  0  0  0  0  0  0  0
    2.3773    1.4107   -0.0130 C   0  0  0  0  0  0  0  0  0  0  0  0
    2.3960    0.0285   -0.0201 C   0  0  0  0  0  0  0  0  0  0  0  0
    1.2084   -0.6789   -0.0117 C   0  0  0  0  0  0  0  0  0  0  0  0
    0.0021   -0.0041    0.0020 C   0  0  0  0  0  0  0  0  0  0  0  0
    3.7112   -0.7071   -0.0376 C   0  0  0  0  0  0  0  0  0  0  0  0
    3.8172   -1.5918    1.2062 C   0  0  0  0  0  0  0  0  0  0  0  0
    3.8598   -0.7690    2.3738 O   0  0  0  0  0  0  0  0  0  0  0  0
    3.9536   -1.3969    3.5610 C   0  0  0  0  0  0  0  0  0  0  0  0
    3.9981   -2.6104    3.6046 O   0  0  0  0  0  0  0  0  0  0  0  0
    3.9981   -0.6796    4.7012 N   0  0  0  0  0  0  0  0  0  0  0  0
    3.7911   -1.5793   -1.2921 C   0  0  0  0  0  0  0  0  0  0  0  0
    3.8092   -0.7449   -2.4520 O   0  0  0  0  0  0  0  0  0  0  0  0
    3.8780   -1.3609   -3.6472 C   0  0  0  0  0  0  0  0  0  0  0  0
    3.9215   -2.5740   -3.7038 O   0  0  0  0  0  0  0  0  0  0  0  0
    3.8987   -0.6322   -4.7808 N   0  0  0  0  0  0  0  0  0  0  0  0
   -0.9591    1.9053    0.0259 H   0  0  0  0  0  0  0  0  0  0  0  0
    1.1563    3.1654    0.0076 H   0  0  0  0  0  0  0  0  0  0  0  0
    3.3051    1.9634   -0.0196 H   0  0  0  0  0  0  0  0  0  0  0  0
    1.2231   -1.7588   -0.0176 H   0  0  0  0  0  0  0  0  0  0  0  0
   -0.9258   -0.5567    0.0082 H   0  0  0  0  0  0  0  0  0  0  0  0
    4.5299    0.0124   -0.0426 H   0  0  0  0  0  0  0  0  0  0  0  0
    2.9510   -2.2513    1.2579 H   0  0  0  0  0  0  0  0  0  0  0  0
    4.7266   -2.1901    1.1500 H   0  0  0  0  0  0  0  0  0  0  0  0
    3.9626    0.2892    4.6663 H   0  0  0  0  0  0  0  0  0  0  0  0
    4.0657   -1.1320    5.5565 H   0  0  0  0  0  0  0  0  0  0  0  0
    4.7013   -2.1781   -1.2610 H   0  0  0  0  0  0  0  0  0  0  0  0
    2.9238   -2.2384   -1.3322 H   0  0  0  0  0  0  0  0  0  0  0  0
    3.8641    0.3361   -4.7355 H   0  0  0  0  0  0  0  0  0  0  0  0
    3.9483   -1.0761   -5.6418 H   0  0  0  0  0  0  0  0  0  0  0  0
  1  6  2  0  0  0  0
  1  2  1  0  0  0  0
  1 18  1  0  0  0  0
  2  3  2  0  0  0  0
  2 19  1  0  0  0  0
  3  4  1  0  0  0  0
  3 20  1  0  0  0  0
  4  5  2  0  0  0  0
  4  7  1  0  0  0  0
  5  6  1  0  0  0  0
  5 21  1  0  0  0  0
  6 22  1  0  0  0  0
  7  8  1  0  0  0  0
  7 13  1  0  0  0  0
  7 23  1  0  0  0  0
  8  9  1  0  0  0  0
  8 24  1  0  0  0  0
  8 25  1  0  0  0  0
  9 10  1  0  0  0  0
 10 11  2  0  0  0  0
 10 12  1  0  0  0  0
 12 26  1  0  0  0  0
 12 27  1  0  0  0  0
 13 14  1  0  0  0  0
 13 28  1  0  0  0  0
 13 29  1  0  0  0  0
 14 15  1  0  0  0  0
 15 16  2  0  0  0  0
 15 17  1  0  0  0  0
 17 30  1  0  0  0  0
 17 31  1  0  0  0  0
M  END
$$$$
