ZINC03831050
 OpenBabel08292219463D

 29 28  0  0  1  0  0  0  0  0999 V2000
   -0.3928    1.6474    0.1249 C   0  0  0  0  0  0  0  0  0  0  0  0
   -0.2100    0.1289    0.0830 C   0  0  1  0  0  0  0  0  0  0  0  0
    0.2528   -0.2070    1.0110 H   0  0  0  0  0  0  0  0  0  0  0  0
   -1.5740   -0.5447   -0.0797 C   0  0  0  0  0  0  0  0  0  0  0  0
   -1.4134   -2.0025    0.0048 N   0  3  0  0  0  0  0  0  0  0  0  0
   -0.7209   -2.3473    1.2536 C   0  0  0  0  0  0  0  0  0  0  0  0
   -2.7354   -2.6427   -0.0149 C   0  0  0  0  0  0  0  0  0  0  0  0
   -0.6233   -2.4752   -1.1399 C   0  0  0  0  0  0  0  0  0  0  0  0
    0.6281   -0.2197   -1.0206 O   0  0  0  0  0  0  0  0  0  0  0  0
    1.9494   -0.2717   -0.7899 C   0  0  0  0  0  0  0  0  0  0  0  0
    2.3802   -0.0291    0.3126 O   0  0  0  0  0  0  0  0  0  0  0  0
    2.8956   -0.6324   -1.9060 C   0  0  0  0  0  0  0  0  0  0  0  0
    0.5790    2.1273    0.2408 H   0  0  0  0  0  0  0  0  0  0  0  0
   -0.8556    1.9833   -0.8031 H   0  0  0  0  0  0  0  0  0  0  0  0
   -1.0321    1.9133    0.9667 H   0  0  0  0  0  0  0  0  0  0  0  0
   -2.2430   -0.2065    0.7116 H   0  0  0  0  0  0  0  0  0  0  0  0
   -1.9960   -0.2813   -1.0495 H   0  0  0  0  0  0  0  0  0  0  0  0
   -1.3071   -1.9965    2.1029 H   0  0  0  0  0  0  0  0  0  0  0  0
   -0.6017   -3.4289    1.3163 H   0  0  0  0  0  0  0  0  0  0  0  0
    0.2600   -1.8722    1.2682 H   0  0  0  0  0  0  0  0  0  0  0  0
   -3.2492   -2.3869   -0.9415 H   0  0  0  0  0  0  0  0  0  0  0  0
   -2.6162   -3.7244    0.0478 H   0  0  0  0  0  0  0  0  0  0  0  0
   -3.3216   -2.2920    0.8345 H   0  0  0  0  0  0  0  0  0  0  0  0
    0.4164   -2.1734   -1.0131 H   0  0  0  0  0  0  0  0  0  0  0  0
   -0.6817   -3.5621   -1.1976 H   0  0  0  0  0  0  0  0  0  0  0  0
   -1.0184   -2.0408   -2.0582 H   0  0  0  0  0  0  0  0  0  0  0  0
    2.3282   -0.8156   -2.8184 H   0  0  0  0  0  0  0  0  0  0  0  0
    3.5933    0.1887   -2.0706 H   0  0  0  0  0  0  0  0  0  0  0  0
    3.4498   -1.5314   -1.6361 H   0  0  0  0  0  0  0  0  0  0  0  0
  1  2  1  0  0  0  0
  1 13  1  0  0  0  0
  1 14  1  0  0  0  0
  1 15  1  0  0  0  0
  2  3  1  1  0  0  0
  2  4  1  0  0  0  0
  2  9  1  0  0  0  0
  4  5  1  0  0  0  0
  4 16  1  0  0  0  0
  4 17  1  0  0  0  0
  5  6  1  0  0  0  0
  5  7  1  0  0  0  0
  5  8  1  0  0  0  0
  6 18  1  0  0  0  0
  6 19  1  0  0  0  0
  6 20  1  0  0  0  0
  7 21  1  0  0  0  0
  7 22  1  0  0  0  0
  7 23  1  0  0  0  0
  8 24  1  0  0  0  0
  8 25  1  0  0  0  0
  8 26  1  0  0  0  0
  9 10  1  0  0  0  0
 10 11  2  0  0  0  0
 10 12  1  0  0  0  0
 12 27  1  0  0  0  0
 12 28  1  0  0  0  0
 12 29  1  0  0  0  0
M  CHG  1   5   1
M  END
$$$$
