ZINC49089868
 OpenBabel08292219463D

 32 34  0  0  0  0  0  0  0  0999 V2000
    0.6025    1.5811   -0.4886 C   0  0  0  0  0  0  0  0  0  0  0  0
    0.4193    0.1462   -0.2571 N   0  0  0  0  0  0  0  0  0  0  0  0
   -0.0224   -0.6929   -1.3057 C   0  0  0  0  0  0  0  0  0  0  0  0
   -0.8686   -0.1809   -2.2451 C   0  0  0  0  0  0  0  0  0  0  0  0
   -1.3832    1.0856   -2.0902 N   0  0  0  0  0  0  0  0  0  0  0  0
   -1.2015    2.0376   -3.0890 C   0  0  0  0  0  0  0  0  0  0  0  0
   -0.3879    1.7462   -4.1791 C   0  0  0  0  0  0  0  0  0  0  0  0
   -0.2160    2.7015   -5.1646 C   0  0  0  0  0  0  0  0  0  0  0  0
   -0.8661    3.9208   -5.0261 C   0  0  0  0  0  0  0  0  0  0  0  0
   -1.6588    4.1423   -3.9177 C   0  0  0  0  0  0  0  0  0  0  0  0
   -1.8087    3.2104   -2.9959 N   0  0  0  0  0  0  0  0  0  0  0  0
   -1.2016   -0.9180   -3.3285 O   0  5  0  0  0  0  0  0  0  0  0  0
    0.3811   -2.0423   -1.4162 C   0  0  0  0  0  0  0  0  0  0  0  0
    0.0436   -2.6989   -2.3892 O   0  0  0  0  0  0  0  0  0  0  0  0
    1.1932   -2.6531   -0.3814 C   0  0  0  0  0  0  0  0  0  0  0  0
    1.4503   -2.0911    0.8737 C   0  0  0  0  0  0  0  0  0  0  0  0
    2.2504   -2.8582    1.6843 C   0  0  0  0  0  0  0  0  0  0  0  0
    2.7121   -4.0530    1.2291 C   0  0  0  0  0  0  0  0  0  0  0  0
    2.0741   -4.1805   -0.3236 S   0  0  0  0  0  0  0  0  0  0  0  0
    3.7290   -5.1886    2.0597 Cl  0  0  0  0  0  0  0  0  0  0  0  0
    0.7369   -0.5090    1.2427 S   0  0  0  0  0  0  0  0  0  0  0  0
    1.7560    0.2822    1.8383 O   0  0  0  0  0  0  0  0  0  0  0  0
   -0.5160   -0.7540    1.8668 O   0  0  0  0  0  0  0  0  0  0  0  0
    1.3920    1.9563    0.1625 H   0  0  0  0  0  0  0  0  0  0  0  0
    0.8795    1.7488   -1.5294 H   0  0  0  0  0  0  0  0  0  0  0  0
   -0.3278    2.1059   -0.2712 H   0  0  0  0  0  0  0  0  0  0  0  0
    0.1032    0.7873   -4.2548 H   0  0  0  0  0  0  0  0  0  0  0  0
    0.4100    2.5038   -6.0222 H   0  0  0  0  0  0  0  0  0  0  0  0
   -0.7524    4.6880   -5.7777 H   0  0  0  0  0  0  0  0  0  0  0  0
   -2.1659    5.0893   -3.8058 H   0  0  0  0  0  0  0  0  0  0  0  0
    2.5109   -2.5150    2.6747 H   0  0  0  0  0  0  0  0  0  0  0  0
   -1.8727    1.3150   -1.2848 H   0  0  0  0  0  0  0  0  0  0  0  0
  1  2  1  0  0  0  0
  1 24  1  0  0  0  0
  1 25  1  0  0  0  0
  1 26  1  0  0  0  0
  2 21  1  0  0  0  0
  2  3  1  0  0  0  0
  3  4  2  0  0  0  0
  3 13  1  0  0  0  0
  4  5  1  0  0  0  0
  4 12  1  0  0  0  0
  5  6  1  0  0  0  0
  5 32  1  0  0  0  0
  6 11  2  0  0  0  0
  6  7  1  0  0  0  0
  7  8  2  0  0  0  0
  7 27  1  0  0  0  0
  8  9  1  0  0  0  0
  8 28  1  0  0  0  0
  9 10  2  0  0  0  0
  9 29  1  0  0  0  0
 10 11  1  0  0  0  0
 10 30  1  0  0  0  0
 13 14  2  0  0  0  0
 13 15  1  0  0  0  0
 15 19  1  0  0  0  0
 15 16  2  0  0  0  0
 16 17  1  0  0  0  0
 16 21  1  0  0  0  0
 17 18  2  0  0  0  0
 17 31  1  0  0  0  0
 18 19  1  0  0  0  0
 18 20  1  0  0  0  0
 21 22  2  0  0  0  0
 21 23  2  0  0  0  0
M  CHG  1  12  -1
M  END
$$$$
