ZINC01530932
 OpenBabel08292219463D

 51 53  0  0  0  0  0  0  0  0999 V2000
    3.0668   -4.7673    0.2454 C   0  0  0  0  0  0  0  0  0  0  0  0
    2.0550   -4.1600    1.2192 C   0  0  0  0  0  0  0  0  0  0  0  0
    1.3678   -3.0342    0.5724 N   0  3  0  0  0  0  0  0  0  0  0  0
    2.3528   -2.0137    0.1900 C   0  0  0  0  0  0  0  0  0  0  0  0
    0.6670   -3.5121   -0.6270 C   0  0  0  0  0  0  0  0  0  0  0  0
   -0.3357   -4.5985   -0.2330 C   0  0  0  0  0  0  0  0  0  0  0  0
    0.3963   -2.4511    1.5073 C   0  0  0  0  0  0  0  0  0  0  0  0
    1.1368   -1.8540    2.7056 C   0  0  0  0  0  0  0  0  0  0  0  0
    0.1892   -1.4204    3.6834 O   0  0  0  0  0  0  0  0  0  0  0  0
    0.6758   -0.8077    4.7740 C   0  0  0  0  0  0  0  0  0  0  0  0
    1.8699   -0.7333    4.9429 O   0  0  0  0  0  0  0  0  0  0  0  0
   -0.2671   -0.2126    5.7878 C   0  0  0  0  0  0  0  0  0  0  0  0
   -0.7019    1.1506    5.3224 C   0  0  0  0  0  0  0  0  0  0  0  0
   -1.6700    1.2553    4.3395 C   0  0  0  0  0  0  0  0  0  0  0  0
   -2.0827    2.4984    3.8994 C   0  0  0  0  0  0  0  0  0  0  0  0
   -1.5282    3.6436    4.4407 C   0  0  0  0  0  0  0  0  0  0  0  0
   -0.5619    3.5452    5.4216 C   0  0  0  0  0  0  0  0  0  0  0  0
   -0.1446    2.2961    5.8669 C   0  0  0  0  0  0  0  0  0  0  0  0
    0.8038    2.2198    6.8311 O   0  0  0  0  0  0  0  0  0  0  0  0
    0.9283    1.0925    7.5719 C   0  0  0  0  0  0  0  0  0  0  0  0
    0.4287   -0.1177    7.1185 C   0  0  0  0  0  0  0  0  0  0  0  0
    0.5684   -1.2550    7.8939 C   0  0  0  0  0  0  0  0  0  0  0  0
    1.2040   -1.1878    9.1190 C   0  0  0  0  0  0  0  0  0  0  0  0
    1.7032    0.0185    9.5745 C   0  0  0  0  0  0  0  0  0  0  0  0
    1.5676    1.1568    8.8047 C   0  0  0  0  0  0  0  0  0  0  0  0
    3.7977   -4.0101   -0.0384 H   0  0  0  0  0  0  0  0  0  0  0  0
    3.5768   -5.6026    0.7253 H   0  0  0  0  0  0  0  0  0  0  0  0
    2.5469   -5.1219   -0.6446 H   0  0  0  0  0  0  0  0  0  0  0  0
    1.3242   -4.9172    1.5029 H   0  0  0  0  0  0  0  0  0  0  0  0
    2.5750   -3.8054    2.1091 H   0  0  0  0  0  0  0  0  0  0  0  0
    3.0736   -2.4463   -0.5038 H   0  0  0  0  0  0  0  0  0  0  0  0
    1.8428   -1.1784   -0.2900 H   0  0  0  0  0  0  0  0  0  0  0  0
    2.8727   -1.6591    1.0799 H   0  0  0  0  0  0  0  0  0  0  0  0
    0.1380   -2.6814   -1.0939 H   0  0  0  0  0  0  0  0  0  0  0  0
    1.3906   -3.9236   -1.3308 H   0  0  0  0  0  0  0  0  0  0  0  0
    0.2018   -5.4761    0.1261 H   0  0  0  0  0  0  0  0  0  0  0  0
   -0.9867   -4.2229    0.5565 H   0  0  0  0  0  0  0  0  0  0  0  0
   -0.9366   -4.8703   -1.1008 H   0  0  0  0  0  0  0  0  0  0  0  0
   -0.1689   -1.6678    1.0024 H   0  0  0  0  0  0  0  0  0  0  0  0
   -0.2869   -3.2272    1.8524 H   0  0  0  0  0  0  0  0  0  0  0  0
    1.7898   -2.6095    3.1425 H   0  0  0  0  0  0  0  0  0  0  0  0
    1.7342   -1.0037    2.3766 H   0  0  0  0  0  0  0  0  0  0  0  0
   -1.1435   -0.8535    5.8844 H   0  0  0  0  0  0  0  0  0  0  0  0
   -2.1044    0.3625    3.9146 H   0  0  0  0  0  0  0  0  0  0  0  0
   -2.8385    2.5756    3.1318 H   0  0  0  0  0  0  0  0  0  0  0  0
   -1.8513    4.6149    4.0964 H   0  0  0  0  0  0  0  0  0  0  0  0
   -0.1290    4.4402    5.8435 H   0  0  0  0  0  0  0  0  0  0  0  0
    0.1797   -2.1986    7.5403 H   0  0  0  0  0  0  0  0  0  0  0  0
    1.3107   -2.0780    9.7211 H   0  0  0  0  0  0  0  0  0  0  0  0
    2.1998    0.0704   10.5322 H   0  0  0  0  0  0  0  0  0  0  0  0
    1.9583    2.0986    9.1609 H   0  0  0  0  0  0  0  0  0  0  0  0
  1  2  1  0  0  0  0
  1 26  1  0  0  0  0
  1 27  1  0  0  0  0
  1 28  1  0  0  0  0
  2  3  1  0  0  0  0
  2 29  1  0  0  0  0
  2 30  1  0  0  0  0
  3  4  1  0  0  0  0
  3  5  1  0  0  0  0
  3  7  1  0  0  0  0
  4 31  1  0  0  0  0
  4 32  1  0  0  0  0
  4 33  1  0  0  0  0
  5  6  1  0  0  0  0
  5 34  1  0  0  0  0
  5 35  1  0  0  0  0
  6 36  1  0  0  0  0
  6 37  1  0  0  0  0
  6 38  1  0  0  0  0
  7  8  1  0  0  0  0
  7 39  1  0  0  0  0
  7 40  1  0  0  0  0
  8  9  1  0  0  0  0
  8 41  1  0  0  0  0
  8 42  1  0  0  0  0
  9 10  1  0  0  0  0
 10 11  2  0  0  0  0
 10 12  1  0  0  0  0
 12 21  1  0  0  0  0
 12 13  1  0  0  0  0
 12 43  1  0  0  0  0
 13 18  2  0  0  0  0
 13 14  1  0  0  0  0
 14 15  2  0  0  0  0
 14 44  1  0  0  0  0
 15 16  1  0  0  0  0
 15 45  1  0  0  0  0
 16 17  2  0  0  0  0
 16 46  1  0  0  0  0
 17 18  1  0  0  0  0
 17 47  1  0  0  0  0
 18 19  1  0  0  0  0
 19 20  1  0  0  0  0
 20 25  2  0  0  0  0
 20 21  1  0  0  0  0
 21 22  2  0  0  0  0
 22 23  1  0  0  0  0
 22 48  1  0  0  0  0
 23 24  2  0  0  0  0
 23 49  1  0  0  0  0
 24 25  1  0  0  0  0
 24 50  1  0  0  0  0
 25 51  1  0  0  0  0
M  CHG  1   3   1
M  END
$$$$
