ZINC03872520
 OpenBabel08292219463D

 21 21  0  0  0  0  0  0  0  0999 V2000
   -0.0187    1.5258    0.0104 C   0  0  0  0  0  0  0  0  0  0  0  0
    0.0021   -0.0041    0.0020 C   0  0  0  0  0  0  0  0  0  0  0  0
    0.7074   -0.4901   -1.2379 C   0  0  0  0  0  0  0  0  0  0  0  0
    1.7754   -1.3574   -1.1181 C   0  0  0  0  0  0  0  0  0  0  0  0
    2.4218   -1.8013   -2.2768 C   0  0  0  0  0  0  0  0  0  0  0  0
    1.9515   -1.3415   -3.5121 C   0  0  0  0  0  0  0  0  0  0  0  0
    0.8770   -0.4750   -3.5387 C   0  0  0  0  0  0  0  0  0  0  0  0
    0.2932   -0.0856   -2.4222 N   0  0  0  0  0  0  0  0  0  0  0  0
    3.5699   -2.7298   -2.1985 C   0  0  0  0  0  0  0  0  0  0  0  0
    3.6133   -3.9369   -0.9853 S   0  0  0  0  0  0  0  0  0  0  0  0
    4.5822   -2.6257   -3.0821 N   0  0  0  0  0  0  0  0  0  0  0  0
    1.0039    1.9031    0.0027 H   0  0  0  0  0  0  0  0  0  0  0  0
   -0.5459    1.8868   -0.8726 H   0  0  0  0  0  0  0  0  0  0  0  0
   -0.5289    1.8773    0.9072 H   0  0  0  0  0  0  0  0  0  0  0  0
    0.5293   -0.3651    0.8851 H   0  0  0  0  0  0  0  0  0  0  0  0
   -1.0205   -0.3814    0.0098 H   0  0  0  0  0  0  0  0  0  0  0  0
    2.1069   -1.6878   -0.1447 H   0  0  0  0  0  0  0  0  0  0  0  0
    2.4222   -1.6593   -4.4307 H   0  0  0  0  0  0  0  0  0  0  0  0
    0.5067   -0.1146   -4.4870 H   0  0  0  0  0  0  0  0  0  0  0  0
    4.5576   -1.9418   -3.7695 H   0  0  0  0  0  0  0  0  0  0  0  0
    5.3354   -3.2348   -3.0307 H   0  0  0  0  0  0  0  0  0  0  0  0
  1  2  1  0  0  0  0
  1 12  1  0  0  0  0
  1 13  1  0  0  0  0
  1 14  1  0  0  0  0
  2  3  1  0  0  0  0
  2 15  1  0  0  0  0
  2 16  1  0  0  0  0
  3  8  2  0  0  0  0
  3  4  1  0  0  0  0
  4  5  2  0  0  0  0
  4 17  1  0  0  0  0
  5  6  1  0  0  0  0
  5  9  1  0  0  0  0
  6  7  2  0  0  0  0
  6 18  1  0  0  0  0
  7  8  1  0  0  0  0
  7 19  1  0  0  0  0
  9 10  2  0  0  0  0
  9 11  1  0  0  0  0
 11 20  1  0  0  0  0
 11 21  1  0  0  0  0
M  END
$$$$
