ZINC03874185
 OpenBabel08292219463D

 43 45  0  0  1  0  0  0  0  0999 V2000
   -0.0168    1.3889    0.0097 C   0  0  0  0  0  0  0  0  0  0  0  0
    1.1424    2.1034    0.0024 C   0  0  0  0  0  0  0  0  0  0  0  0
    2.3733    1.4284   -0.0129 C   0  0  0  0  0  0  0  0  0  0  0  0
    3.5939    2.1297   -0.0202 C   0  0  0  0  0  0  0  0  0  0  0  0
    4.7524    1.4066   -0.0348 C   0  0  0  0  0  0  0  0  0  0  0  0
    4.7030    0.0141   -0.0421 C   0  0  0  0  0  0  0  0  0  0  0  0
    3.5646   -0.6358   -0.0352 N   0  0  0  0  0  0  0  0  0  0  0  0
    2.3949    0.0115   -0.0208 C   0  0  0  0  0  0  0  0  0  0  0  0
    1.1773   -0.6905   -0.0134 C   0  0  0  0  0  0  0  0  0  0  0  0
    0.0021   -0.0041    0.0020 C   0  0  0  0  0  0  0  0  0  0  0  0
    1.1730   -2.1975   -0.0224 C   0  0  0  0  0  0  0  0  0  0  0  0
   -0.1473   -2.6601   -0.0125 F   0  0  0  0  0  0  0  0  0  0  0  0
    1.8201   -2.6588   -1.1737 F   0  0  0  0  0  0  0  0  0  0  0  0
    1.8420   -2.6725    1.1107 F   0  0  0  0  0  0  0  0  0  0  0  0
    5.9925   -0.7655   -0.0587 C   0  0  0  0  0  0  0  0  0  0  0  0
    6.4042   -1.0140    1.2550 F   0  0  0  0  0  0  0  0  0  0  0  0
    5.7943   -1.9806   -0.7231 F   0  0  0  0  0  0  0  0  0  0  0  0
    6.9762   -0.0255   -0.7236 F   0  0  0  0  0  0  0  0  0  0  0  0
    3.6215    3.6365   -0.0127 C   0  0  1  0  0  0  0  0  0  0  0  0
    2.7812    4.0181   -0.5926 H   0  0  0  0  0  0  0  0  0  0  0  0
    3.5180    4.1412    1.4280 C   0  0  2  0  0  0  0  0  0  0  0  0
    2.5839    3.7925    1.8685 H   0  0  0  0  0  0  0  0  0  0  0  0
    3.5445    5.6712    1.4349 C   0  0  0  0  0  0  0  0  0  0  0  0
    3.4405    6.1715    2.8785 C   0  0  0  0  0  0  0  0  0  0  0  0
    4.5822    5.5676    3.7012 C   0  0  0  0  0  0  0  0  0  0  0  0
    4.5172    4.0415    3.6104 C   0  0  0  0  0  0  0  0  0  0  0  0
    4.6490    3.6257    2.2088 N   0  3  0  0  0  0  0  0  0  0  0  0
    4.8459    4.0934   -0.5907 O   0  0  0  0  0  0  0  0  0  0  0  0
   -0.9632    1.9089    0.0261 H   0  0  0  0  0  0  0  0  0  0  0  0
    1.1150    3.1831    0.0081 H   0  0  0  0  0  0  0  0  0  0  0  0
    5.7060    1.9136   -0.0411 H   0  0  0  0  0  0  0  0  0  0  0  0
   -0.9309   -0.5481    0.0084 H   0  0  0  0  0  0  0  0  0  0  0  0
    4.4784    6.0210    0.9948 H   0  0  0  0  0  0  0  0  0  0  0  0
    2.7033    6.0524    0.8560 H   0  0  0  0  0  0  0  0  0  0  0  0
    3.5158    7.2588    2.8937 H   0  0  0  0  0  0  0  0  0  0  0  0
    2.4841    5.8653    3.3023 H   0  0  0  0  0  0  0  0  0  0  0  0
    5.5375    5.9153    3.3082 H   0  0  0  0  0  0  0  0  0  0  0  0
    4.4826    5.8748    4.7423 H   0  0  0  0  0  0  0  0  0  0  0  0
    5.3286    3.6083    4.1952 H   0  0  0  0  0  0  0  0  0  0  0  0
    3.5616    3.6949    4.0038 H   0  0  0  0  0  0  0  0  0  0  0  0
    4.6599    2.6181    2.1580 H   0  0  0  0  0  0  0  0  0  0  0  0
    5.6376    3.7911   -0.1249 H   0  0  0  0  0  0  0  0  0  0  0  0
    5.5109    3.9889    1.8304 H   0  0  0  0  0  0  0  0  0  0  0  0
  1 10  2  0  0  0  0
  1  2  1  0  0  0  0
  1 29  1  0  0  0  0
  2  3  2  0  0  0  0
  2 30  1  0  0  0  0
  3  8  1  0  0  0  0
  3  4  1  0  0  0  0
  4  5  2  0  0  0  0
  4 19  1  0  0  0  0
  5  6  1  0  0  0  0
  5 31  1  0  0  0  0
  6  7  2  0  0  0  0
  6 15  1  0  0  0  0
  7  8  1  0  0  0  0
  8  9  2  0  0  0  0
  9 10  1  0  0  0  0
  9 11  1  0  0  0  0
 10 32  1  0  0  0  0
 11 12  1  0  0  0  0
 11 13  1  0  0  0  0
 11 14  1  0  0  0  0
 15 16  1  0  0  0  0
 15 17  1  0  0  0  0
 15 18  1  0  0  0  0
 19 20  1  6  0  0  0
 19 21  1  0  0  0  0
 19 28  1  0  0  0  0
 21 22  1  1  0  0  0
 21 27  1  0  0  0  0
 21 23  1  0  0  0  0
 23 24  1  0  0  0  0
 23 33  1  0  0  0  0
 23 34  1  0  0  0  0
 24 25  1  0  0  0  0
 24 35  1  0  0  0  0
 24 36  1  0  0  0  0
 25 26  1  0  0  0  0
 25 37  1  0  0  0  0
 25 38  1  0  0  0  0
 26 27  1  0  0  0  0
 26 39  1  0  0  0  0
 26 40  1  0  0  0  0
 27 41  1  0  0  0  0
 27 43  1  0  0  0  0
 28 42  1  0  0  0  0
M  CHG  1  27   1
M  END
$$$$
