ZINC03581355
 OpenBabel08292219463D

 22 21  0  0  1  0  0  0  0  0999 V2000
   -0.0187    1.5258    0.0104 C   0  0  0  0  0  0  0  0  0  0  0  0
    0.0021   -0.0041    0.0020 C   0  0  0  0  0  0  0  0  0  0  0  0
    0.7182   -0.4975   -1.2568 C   0  0  2  0  0  0  0  0  0  0  0  0
    1.7103   -0.0491   -1.3098 H   0  0  0  0  0  0  0  0  0  0  0  0
   -0.0892   -0.0968   -2.4931 C   0  0  0  0  0  0  0  0  0  0  0  0
    0.8493   -2.0210   -1.2049 C   0  0  1  0  0  0  0  0  0  0  0  0
   -0.1428   -2.4694   -1.1520 H   0  0  0  0  0  0  0  0  0  0  0  0
    1.5546   -2.5070   -2.4448 C   0  0  0  0  0  0  0  0  0  0  0  0
    2.7697   -2.6069   -2.4553 O   0  0  0  0  0  0  0  0  0  0  0  0
    0.9102   -2.8003   -3.4374 O   0  0  0  0  0  1  0  0  0  0  0  0
    1.6245   -2.4057   -0.0179 N   0  3  0  0  0  0  0  0  0  0  0  0
    1.0039    1.9031    0.0027 H   0  0  0  0  0  0  0  0  0  0  0  0
   -0.5459    1.8868   -0.8726 H   0  0  0  0  0  0  0  0  0  0  0  0
   -0.5289    1.8773    0.9072 H   0  0  0  0  0  0  0  0  0  0  0  0
    0.5293   -0.3651    0.8851 H   0  0  0  0  0  0  0  0  0  0  0  0
   -1.0205   -0.3814    0.0098 H   0  0  0  0  0  0  0  0  0  0  0  0
   -1.0813   -0.5452   -2.4401 H   0  0  0  0  0  0  0  0  0  0  0  0
   -0.1826    0.9885   -2.5300 H   0  0  0  0  0  0  0  0  0  0  0  0
    0.4210   -0.4484   -3.3899 H   0  0  0  0  0  0  0  0  0  0  0  0
    2.5429   -1.9906   -0.0670 H   0  0  0  0  0  0  0  0  0  0  0  0
    1.1522   -2.0803    0.8122 H   0  0  0  0  0  0  0  0  0  0  0  0
    1.7109   -3.4104    0.0162 H   0  0  0  0  0  0  0  0  0  0  0  0
  1  2  1  0  0  0  0
  1 12  1  0  0  0  0
  1 13  1  0  0  0  0
  1 14  1  0  0  0  0
  2  3  1  0  0  0  0
  2 15  1  0  0  0  0
  2 16  1  0  0  0  0
  3  4  1  6  0  0  0
  3  5  1  0  0  0  0
  3  6  1  0  0  0  0
  5 17  1  0  0  0  0
  5 18  1  0  0  0  0
  5 19  1  0  0  0  0
  6  7  1  1  0  0  0
  6  8  1  0  0  0  0
  6 11  1  0  0  0  0
  8  9  2  0  0  0  0
  8 10  1  0  0  0  0
 11 20  1  0  0  0  0
 11 21  1  0  0  0  0
 11 22  1  0  0  0  0
M  CHG  1  11   1
M  END
$$$$
