ZINC01530768
 OpenBabel08292219463D

 55 56  0  0  1  0  0  0  0  0999 V2000
   -0.1834    1.1702   -0.0461 C   0  0  0  0  0  0  0  0  0  0  0  0
    0.0499   -0.3400    0.0293 C   0  0  0  0  0  0  0  0  0  0  0  0
    0.7693   -0.7998   -1.2125 C   0  0  0  0  0  0  0  0  0  0  0  0
    1.0652   -0.0015   -2.0698 O   0  0  0  0  0  0  0  0  0  0  0  0
    1.0815   -2.0962   -1.3661 O   0  0  0  0  0  0  0  0  0  0  0  0
    1.7634   -2.4614   -2.5677 C   0  0  1  0  0  0  0  0  0  0  0  0
    2.1469   -3.9413   -2.5069 C   0  0  0  0  0  0  0  0  0  0  0  0
    0.8974   -4.7835   -2.4858 C   0  0  0  0  0  0  0  0  0  0  0  0
    0.3101   -5.1188   -1.2802 C   0  0  0  0  0  0  0  0  0  0  0  0
   -0.8361   -5.8914   -1.2608 C   0  0  0  0  0  0  0  0  0  0  0  0
   -1.3951   -6.3283   -2.4472 C   0  0  0  0  0  0  0  0  0  0  0  0
   -0.8083   -5.9923   -3.6529 C   0  0  0  0  0  0  0  0  0  0  0  0
    0.3354   -5.2161   -3.6724 C   0  0  0  0  0  0  0  0  0  0  0  0
    0.8593   -2.2249   -3.7500 C   0  0  0  0  0  0  0  0  0  0  0  0
    1.2573   -2.6182   -5.0140 C   0  0  0  0  0  0  0  0  0  0  0  0
    0.4281   -2.4013   -6.0985 C   0  0  0  0  0  0  0  0  0  0  0  0
   -0.7994   -1.7915   -5.9189 C   0  0  0  0  0  0  0  0  0  0  0  0
   -1.1978   -1.3990   -4.6548 C   0  0  0  0  0  0  0  0  0  0  0  0
   -0.3704   -1.6198   -3.5696 C   0  0  0  0  0  0  0  0  0  0  0  0
    3.0278   -1.6125   -2.7147 C   0  0  2  0  0  0  0  0  0  0  0  0
    2.7562   -0.5571   -2.7375 H   0  0  0  0  0  0  0  0  0  0  0  0
    3.7427   -1.9834   -4.0155 C   0  0  0  0  0  0  0  0  0  0  0  0
    3.9584   -1.8741   -1.5288 C   0  0  0  0  0  0  0  0  0  0  0  0
    5.1160   -0.9730   -1.6066 N   0  3  0  0  0  0  0  0  0  0  0  0
    4.6663    0.4165   -1.4486 C   0  0  0  0  0  0  0  0  0  0  0  0
    6.0673   -1.3044   -0.5375 C   0  0  0  0  0  0  0  0  0  0  0  0
    0.7757    1.6827   -0.1211 H   0  0  0  0  0  0  0  0  0  0  0  0
   -0.7883    1.4011   -0.9230 H   0  0  0  0  0  0  0  0  0  0  0  0
   -0.7038    1.5028    0.8520 H   0  0  0  0  0  0  0  0  0  0  0  0
    0.6547   -0.5709    0.9061 H   0  0  0  0  0  0  0  0  0  0  0  0
   -0.9092   -0.8525    0.1042 H   0  0  0  0  0  0  0  0  0  0  0  0
    2.7436   -4.1983   -3.3821 H   0  0  0  0  0  0  0  0  0  0  0  0
    2.7271   -4.1294   -1.6035 H   0  0  0  0  0  0  0  0  0  0  0  0
    0.7469   -4.7774   -0.3533 H   0  0  0  0  0  0  0  0  0  0  0  0
   -1.2945   -6.1539   -0.3189 H   0  0  0  0  0  0  0  0  0  0  0  0
   -2.2902   -6.9325   -2.4321 H   0  0  0  0  0  0  0  0  0  0  0  0
   -1.2450   -6.3340   -4.5797 H   0  0  0  0  0  0  0  0  0  0  0  0
    0.7917   -4.9505   -4.6145 H   0  0  0  0  0  0  0  0  0  0  0  0
    2.2164   -3.0947   -5.1543 H   0  0  0  0  0  0  0  0  0  0  0  0
    0.7393   -2.7080   -7.0862 H   0  0  0  0  0  0  0  0  0  0  0  0
   -1.4470   -1.6214   -6.7663 H   0  0  0  0  0  0  0  0  0  0  0  0
   -2.1567   -0.9222   -4.5145 H   0  0  0  0  0  0  0  0  0  0  0  0
   -0.6833   -1.3165   -2.5814 H   0  0  0  0  0  0  0  0  0  0  0  0
    3.8728   -3.0646   -4.0631 H   0  0  0  0  0  0  0  0  0  0  0  0
    3.1462   -1.6515   -4.8653 H   0  0  0  0  0  0  0  0  0  0  0  0
    4.7184   -1.4985   -4.0449 H   0  0  0  0  0  0  0  0  0  0  0  0
    3.4202   -1.6946   -0.5981 H   0  0  0  0  0  0  0  0  0  0  0  0
    4.3007   -2.9086   -1.5568 H   0  0  0  0  0  0  0  0  0  0  0  0
    5.5252    1.0852   -1.5064 H   0  0  0  0  0  0  0  0  0  0  0  0
    3.9604    0.6624   -2.2420 H   0  0  0  0  0  0  0  0  0  0  0  0
    4.1796    0.5331   -0.4803 H   0  0  0  0  0  0  0  0  0  0  0  0
    6.4009   -2.3354   -0.6547 H   0  0  0  0  0  0  0  0  0  0  0  0
    6.9262   -0.6358   -0.5952 H   0  0  0  0  0  0  0  0  0  0  0  0
    5.5806   -1.1879    0.4309 H   0  0  0  0  0  0  0  0  0  0  0  0
    5.5665   -1.0809   -2.5030 H   0  0  0  0  0  0  0  0  0  0  0  0
  1  2  1  0  0  0  0
  1 27  1  0  0  0  0
  1 28  1  0  0  0  0
  1 29  1  0  0  0  0
  2  3  1  0  0  0  0
  2 30  1  0  0  0  0
  2 31  1  0  0  0  0
  3  4  2  0  0  0  0
  3  5  1  0  0  0  0
  6  5  1  1  0  0  0
  6  7  1  0  0  0  0
  6 14  1  0  0  0  0
  6 20  1  0  0  0  0
  7  8  1  0  0  0  0
  7 32  1  0  0  0  0
  7 33  1  0  0  0  0
  8 13  2  0  0  0  0
  8  9  1  0  0  0  0
  9 10  2  0  0  0  0
  9 34  1  0  0  0  0
 10 11  1  0  0  0  0
 10 35  1  0  0  0  0
 11 12  2  0  0  0  0
 11 36  1  0  0  0  0
 12 13  1  0  0  0  0
 12 37  1  0  0  0  0
 13 38  1  0  0  0  0
 14 19  2  0  0  0  0
 14 15  1  0  0  0  0
 15 16  2  0  0  0  0
 15 39  1  0  0  0  0
 16 17  1  0  0  0  0
 16 40  1  0  0  0  0
 17 18  2  0  0  0  0
 17 41  1  0  0  0  0
 18 19  1  0  0  0  0
 18 42  1  0  0  0  0
 19 43  1  0  0  0  0
 20 21  1  6  0  0  0
 20 22  1  0  0  0  0
 20 23  1  0  0  0  0
 22 44  1  0  0  0  0
 22 45  1  0  0  0  0
 22 46  1  0  0  0  0
 23 24  1  0  0  0  0
 23 47  1  0  0  0  0
 23 48  1  0  0  0  0
 24 25  1  0  0  0  0
 24 26  1  0  0  0  0
 24 55  1  0  0  0  0
 25 49  1  0  0  0  0
 25 50  1  0  0  0  0
 25 51  1  0  0  0  0
 26 52  1  0  0  0  0
 26 53  1  0  0  0  0
 26 54  1  0  0  0  0
M  CHG  1  24   1
M  END
$$$$
