ZINC96006024
 OpenBabel08292219463D

120125  0  0  1  0  0  0  0  0999 V2000
    0.9831   -0.1421   -0.9571 C   0  0  0  0  0  0  0  0  0  0  0  0
    0.2540    0.1527    0.3553 C   0  0  0  0  0  0  0  0  0  0  0  0
   -1.2166   -0.2341    0.2185 C   0  0  1  0  0  0  0  0  0  0  0  0
   -1.6397    0.2528   -0.6651 H   0  0  0  0  0  0  0  0  0  0  0  0
   -1.3209   -1.7534    0.0461 C   0  0  0  0  0  0  0  0  0  0  0  0
   -0.9005   -2.4372    1.3462 C   0  0  0  0  0  0  0  0  0  0  0  0
   -2.0229   -3.3544    1.8297 C   0  0  0  0  0  0  0  0  0  0  0  0
   -1.9409   -3.5114    3.3534 C   0  0  1  0  0  0  0  0  0  0  0  0
   -1.0210   -3.0643    3.7237 H   0  0  0  0  0  0  0  0  0  0  0  0
   -3.1576   -2.7929    3.9664 C   0  0  2  0  0  0  0  0  0  0  0  0
   -4.0455   -3.0782    3.3776 H   0  0  0  0  0  0  0  0  0  0  0  0
   -2.9548   -1.3176    3.8468 C   0  0  0  0  0  0  0  0  0  0  0  0
   -3.5763   -0.7608    2.9403 O   0  0  0  0  0  0  0  0  0  0  0  0
   -2.1214   -0.4589    4.6784 C   0  0  0  0  0  0  0  0  0  0  0  0
   -1.9624   -0.5474    5.9920 C   0  0  0  0  0  0  0  0  0  0  0  0
   -1.0593    0.5377    6.4964 C   0  0  1  0  0  0  0  0  0  0  0  0
   -1.5886    1.1066    7.2667 H   0  0  0  0  0  0  0  0  0  0  0  0
    0.2353   -0.0075    7.1120 C   0  0  2  0  0  0  0  0  0  0  0  0
    0.7142   -0.7025    6.4342 H   0  0  0  0  0  0  0  0  0  0  0  0
    0.1183   -0.6399    8.5000 C   0  0  0  0  0  0  0  0  0  0  0  0
    1.5085   -0.4621    9.1167 C   0  0  1  0  0  0  0  0  0  0  0  0
    2.0589   -1.4009    9.0862 H   0  0  0  0  0  0  0  0  0  0  0  0
    2.2245    0.5950    8.2717 C   0  0  0  0  0  0  0  0  0  0  0  0
    1.1327    1.2014    7.3953 C   0  0  1  0  0  0  0  0  0  0  0  0
    0.5755    1.9683    7.9504 H   0  0  0  0  0  0  0  0  0  0  0  0
    1.5632    1.6903    6.0408 C   0  0  0  0  0  0  0  0  0  0  0  0
    0.6722    1.8197    5.0879 C   0  0  0  0  0  0  0  0  0  0  0  0
   -0.7749    1.4766    5.3297 C   0  0  1  0  0  0  0  0  0  0  0  0
   -1.3445    2.3961    5.4586 H   0  0  0  0  0  0  0  0  0  0  0  0
   -1.3431    0.7105    4.1346 C   0  0  2  0  0  0  0  0  0  0  0  0
   -0.5284    0.3383    3.5073 H   0  0  0  0  0  0  0  0  0  0  0  0
   -2.2438    1.6258    3.3003 C   0  0  0  0  0  0  0  0  0  0  0  0
   -1.9767    1.3880    1.8290 C   0  0  0  0  0  0  0  0  0  0  0  0
   -1.8115    2.3386    1.0951 O   0  0  0  0  0  0  0  0  0  0  0  0
   -1.9466    0.1382    1.3744 O   0  0  0  0  0  0  0  0  0  0  0  0
    1.3936   -0.0099   10.4690 O   0  0  0  0  0  0  0  0  0  0  0  0
    2.4614   -0.4367   11.3174 C   0  0  2  0  0  0  0  0  0  0  0  0
    3.3716   -0.5475   10.7280 H   0  0  0  0  0  0  0  0  0  0  0  0
    2.1002   -1.7797   11.9552 C   0  0  0  0  0  0  0  0  0  0  0  0
    0.8226   -1.6243   12.7825 C   0  0  2  0  0  0  0  0  0  0  0  0
    0.0081   -1.2987   12.1354 H   0  0  0  0  0  0  0  0  0  0  0  0
    1.0493   -0.5828   13.8802 C   0  0  1  0  0  0  0  0  0  0  0  0
    1.8638   -0.9084   14.5273 H   0  0  0  0  0  0  0  0  0  0  0  0
    1.4105    0.7601   13.2423 C   0  0  2  0  0  0  0  0  0  0  0  0
    0.5960    1.0857   12.5952 H   0  0  0  0  0  0  0  0  0  0  0  0
    2.6881    0.6047   12.4151 C   0  0  1  0  0  0  0  0  0  0  0  0
    2.9454    1.5615   11.9606 H   0  0  0  0  0  0  0  0  0  0  0  0
    3.7559    0.1778   13.2634 O   0  0  0  0  0  0  0  0  0  0  0  0
    4.4973    1.2501   13.8487 C   0  0  0  0  0  0  0  0  0  0  0  0
    1.6222    1.7328   14.2676 O   0  0  0  0  0  0  0  0  0  0  0  0
    1.2997    3.0689   13.8767 C   0  0  0  0  0  0  0  0  0  0  0  0
   -0.1440   -0.4376   14.6529 O   0  0  0  0  0  0  0  0  0  0  0  0
    0.0865   -0.0732   16.0153 C   0  0  0  0  0  0  0  0  0  0  0  0
    0.4615   -2.9672   13.4204 C   0  0  0  0  0  0  0  0  0  0  0  0
   -3.3781   -3.2599    5.4007 C   0  0  0  0  0  0  0  0  0  0  0  0
   -1.9799   -4.8966    3.6941 O   0  0  0  0  0  0  0  0  0  0  0  0
   -0.6937   -5.5161    3.7571 C   0  0  1  0  0  0  0  0  0  0  0  0
   -0.0568   -4.9621    4.4466 H   0  0  0  0  0  0  0  0  0  0  0  0
   -0.8452   -6.9581    4.2486 C   0  0  0  0  0  0  0  0  0  0  0  0
    0.5295   -7.6338    4.2560 C   0  0  0  0  0  0  0  0  0  0  0  0
    1.1304   -7.5592    2.8490 C   0  0  1  0  0  0  0  0  0  0  0  0
    0.5009   -8.1150    2.1541 H   0  0  0  0  0  0  0  0  0  0  0  0
    1.2056   -6.0940    2.4116 C   0  0  2  0  0  0  0  0  0  0  0  0
    1.8675   -5.5476    3.0834 H   0  0  0  0  0  0  0  0  0  0  0  0
   -0.1010   -5.5170    2.4568 O   0  0  0  0  0  0  0  0  0  0  0  0
    1.7493   -6.0151    0.9836 C   0  0  0  0  0  0  0  0  0  0  0  0
    2.4800   -8.1393    2.8602 N   0  3  0  0  0  0  0  0  0  0  0  0
    3.2922   -7.4700    3.8851 C   0  0  0  0  0  0  0  0  0  0  0  0
    2.3938   -9.5740    3.1636 C   0  0  0  0  0  0  0  0  0  0  0  0
    2.0094    0.2192   -0.8917 H   0  0  0  0  0  0  0  0  0  0  0  0
    0.9871   -1.2172   -1.1369 H   0  0  0  0  0  0  0  0  0  0  0  0
    0.4722    0.3615   -1.7777 H   0  0  0  0  0  0  0  0  0  0  0  0
    0.7081   -0.4244    1.1608 H   0  0  0  0  0  0  0  0  0  0  0  0
    0.3304    1.2161    0.5824 H   0  0  0  0  0  0  0  0  0  0  0  0
   -2.3608   -2.0128   -0.1727 H   0  0  0  0  0  0  0  0  0  0  0  0
   -0.6803   -2.0785   -0.7705 H   0  0  0  0  0  0  0  0  0  0  0  0
    0.0064   -3.0189    1.1792 H   0  0  0  0  0  0  0  0  0  0  0  0
   -0.7087   -1.6799    2.1091 H   0  0  0  0  0  0  0  0  0  0  0  0
   -2.9853   -2.9041    1.5740 H   0  0  0  0  0  0  0  0  0  0  0  0
   -1.9359   -4.3287    1.3542 H   0  0  0  0  0  0  0  0  0  0  0  0
   -2.4316   -1.2721    6.6408 H   0  0  0  0  0  0  0  0  0  0  0  0
   -0.6305   -0.1258    9.1025 H   0  0  0  0  0  0  0  0  0  0  0  0
   -0.1244   -1.7003    8.4205 H   0  0  0  0  0  0  0  0  0  0  0  0
    2.6604    1.3635    8.9166 H   0  0  0  0  0  0  0  0  0  0  0  0
    2.9967    0.1376    7.6557 H   0  0  0  0  0  0  0  0  0  0  0  0
    2.5996    1.9293    5.8589 H   0  0  0  0  0  0  0  0  0  0  0  0
    0.9807    2.1854    4.1192 H   0  0  0  0  0  0  0  0  0  0  0  0
   -3.2888    1.4041    3.5149 H   0  0  0  0  0  0  0  0  0  0  0  0
   -2.0330    2.6664    3.5456 H   0  0  0  0  0  0  0  0  0  0  0  0
    1.9387   -2.5216   11.1732 H   0  0  0  0  0  0  0  0  0  0  0  0
    2.9147   -2.1053   12.6023 H   0  0  0  0  0  0  0  0  0  0  0  0
    3.8311    1.8643   14.4545 H   0  0  0  0  0  0  0  0  0  0  0  0
    5.2890    0.8434   14.4779 H   0  0  0  0  0  0  0  0  0  0  0  0
    4.9374    1.8604   13.0601 H   0  0  0  0  0  0  0  0  0  0  0  0
    1.4877    3.7465   14.7095 H   0  0  0  0  0  0  0  0  0  0  0  0
    1.9176    3.3580   13.0265 H   0  0  0  0  0  0  0  0  0  0  0  0
    0.2478    3.1215   13.5958 H   0  0  0  0  0  0  0  0  0  0  0  0
   -0.8681    0.0170   16.5337 H   0  0  0  0  0  0  0  0  0  0  0  0
    0.6916   -0.8400   16.4991 H   0  0  0  0  0  0  0  0  0  0  0  0
    0.6117    0.8812   16.0522 H   0  0  0  0  0  0  0  0  0  0  0  0
    1.2760   -3.2928   14.0675 H   0  0  0  0  0  0  0  0  0  0  0  0
   -0.4487   -2.8565   14.0098 H   0  0  0  0  0  0  0  0  0  0  0  0
    0.2999   -3.7092   12.6384 H   0  0  0  0  0  0  0  0  0  0  0  0
   -2.4936   -3.0343    5.9963 H   0  0  0  0  0  0  0  0  0  0  0  0
   -4.2411   -2.7443    5.8221 H   0  0  0  0  0  0  0  0  0  0  0  0
   -3.5574   -4.3351    5.4093 H   0  0  0  0  0  0  0  0  0  0  0  0
   -1.2562   -6.9576    5.2581 H   0  0  0  0  0  0  0  0  0  0  0  0
   -1.5147   -7.5017    3.5819 H   0  0  0  0  0  0  0  0  0  0  0  0
    1.1844   -7.1202    4.9599 H   0  0  0  0  0  0  0  0  0  0  0  0
    0.4213   -8.6774    4.5514 H   0  0  0  0  0  0  0  0  0  0  0  0
    1.1404   -6.6376    0.3280 H   0  0  0  0  0  0  0  0  0  0  0  0
    1.7150   -4.9817    0.6384 H   0  0  0  0  0  0  0  0  0  0  0  0
    2.7799   -6.3696    0.9672 H   0  0  0  0  0  0  0  0  0  0  0  0
    2.8294   -7.6075    4.8623 H   0  0  0  0  0  0  0  0  0  0  0  0
    4.2935   -7.9004    3.8934 H   0  0  0  0  0  0  0  0  0  0  0  0
    3.3561   -6.4054    3.6599 H   0  0  0  0  0  0  0  0  0  0  0  0
    1.8583  -10.0833    2.3624 H   0  0  0  0  0  0  0  0  0  0  0  0
    3.3984   -9.9882    3.2498 H   0  0  0  0  0  0  0  0  0  0  0  0
    1.8608   -9.7151    4.1039 H   0  0  0  0  0  0  0  0  0  0  0  0
    2.9083   -8.0120    1.9555 H   0  0  0  0  0  0  0  0  0  0  0  0
  1  2  1  0  0  0  0
  1 70  1  0  0  0  0
  1 71  1  0  0  0  0
  1 72  1  0  0  0  0
  2  3  1  0  0  0  0
  2 73  1  0  0  0  0
  2 74  1  0  0  0  0
  3  4  1  6  0  0  0
  3 35  1  0  0  0  0
  3  5  1  0  0  0  0
  5  6  1  0  0  0  0
  5 75  1  0  0  0  0
  5 76  1  0  0  0  0
  6  7  1  0  0  0  0
  6 77  1  0  0  0  0
  6 78  1  0  0  0  0
  7  8  1  0  0  0  0
  7 79  1  0  0  0  0
  7 80  1  0  0  0  0
  8  9  1  1  0  0  0
  8 10  1  0  0  0  0
  8 56  1  0  0  0  0
 10 11  1  6  0  0  0
 10 12  1  0  0  0  0
 10 55  1  0  0  0  0
 12 13  2  0  0  0  0
 12 14  1  0  0  0  0
 14 30  1  0  0  0  0
 14 15  2  0  0  0  0
 15 16  1  0  0  0  0
 15 81  1  0  0  0  0
 16 17  1  1  0  0  0
 16 28  1  0  0  0  0
 16 18  1  0  0  0  0
 18 19  1  6  0  0  0
 18 24  1  0  0  0  0
 18 20  1  0  0  0  0
 20 21  1  0  0  0  0
 20 82  1  0  0  0  0
 20 83  1  0  0  0  0
 21 22  1  6  0  0  0
 21 23  1  0  0  0  0
 21 36  1  0  0  0  0
 23 24  1  0  0  0  0
 23 84  1  0  0  0  0
 23 85  1  0  0  0  0
 24 25  1  1  0  0  0
 24 26  1  0  0  0  0
 26 27  2  0  0  0  0
 26 86  1  0  0  0  0
 27 28  1  0  0  0  0
 27 87  1  0  0  0  0
 28 29  1  1  0  0  0
 28 30  1  0  0  0  0
 30 31  1  6  0  0  0
 30 32  1  0  0  0  0
 32 33  1  0  0  0  0
 32 88  1  0  0  0  0
 32 89  1  0  0  0  0
 33 34  2  0  0  0  0
 33 35  1  0  0  0  0
 36 37  1  0  0  0  0
 37 38  1  6  0  0  0
 37 46  1  0  0  0  0
 37 39  1  0  0  0  0
 39 40  1  0  0  0  0
 39 90  1  0  0  0  0
 39 91  1  0  0  0  0
 40 41  1  6  0  0  0
 40 42  1  0  0  0  0
 40 54  1  0  0  0  0
 42 43  1  1  0  0  0
 42 44  1  0  0  0  0
 42 52  1  0  0  0  0
 44 45  1  6  0  0  0
 44 46  1  0  0  0  0
 44 50  1  0  0  0  0
 46 47  1  6  0  0  0
 46 48  1  0  0  0  0
 48 49  1  0  0  0  0
 49 92  1  0  0  0  0
 49 93  1  0  0  0  0
 49 94  1  0  0  0  0
 50 51  1  0  0  0  0
 51 95  1  0  0  0  0
 51 96  1  0  0  0  0
 51 97  1  0  0  0  0
 52 53  1  0  0  0  0
 53 98  1  0  0  0  0
 53 99  1  0  0  0  0
 53100  1  0  0  0  0
 54101  1  0  0  0  0
 54102  1  0  0  0  0
 54103  1  0  0  0  0
 55104  1  0  0  0  0
 55105  1  0  0  0  0
 55106  1  0  0  0  0
 56 57  1  0  0  0  0
 57 58  1  1  0  0  0
 57 65  1  0  0  0  0
 57 59  1  0  0  0  0
 59 60  1  0  0  0  0
 59107  1  0  0  0  0
 59108  1  0  0  0  0
 60 61  1  0  0  0  0
 60109  1  0  0  0  0
 60110  1  0  0  0  0
 61 62  1  6  0  0  0
 61 63  1  0  0  0  0
 61 67  1  0  0  0  0
 63 64  1  1  0  0  0
 63 65  1  0  0  0  0
 63 66  1  0  0  0  0
 66111  1  0  0  0  0
 66112  1  0  0  0  0
 66113  1  0  0  0  0
 67 68  1  0  0  0  0
 67 69  1  0  0  0  0
 67120  1  0  0  0  0
 68114  1  0  0  0  0
 68115  1  0  0  0  0
 68116  1  0  0  0  0
 69117  1  0  0  0  0
 69118  1  0  0  0  0
 69119  1  0  0  0  0
M  CHG  1  67   1
M  END
$$$$
