ZINC18178475
 OpenBabel08292219463D

 26 25  0  0  1  0  0  0  0  0999 V2000
   -6.1620    1.8387   -0.0845 C   0  0  0  0  0  0  0  0  0  0  0  0
   -4.8899    0.9887   -0.0951 C   0  0  2  0  0  0  0  0  0  0  0  0
   -4.9081    0.2335    0.7045 H   0  0  0  0  0  0  0  0  0  0  0  0
   -3.6669    1.8995    0.0298 C   0  0  2  0  0  0  0  0  0  0  0  0
   -3.6487    2.6547   -0.7698 H   0  0  0  0  0  0  0  0  0  0  0  0
   -2.3948    1.0495    0.0191 C   0  0  0  0  0  0  0  0  0  0  0  0
   -1.2502    1.9051    0.0183 O   0  0  0  0  0  0  0  0  0  0  0  0
   -0.0144    1.2138    0.0087 N   0  0  0  0  0  4  0  0  0  0  0  0
    0.0021   -0.0041    0.0020 O   0  0  0  0  0  0  0  0  0  0  0  0
    1.0320    1.8371    0.0021 O   0  5  0  0  0  0  0  0  0  0  0  0
   -3.7408    2.6309    1.2552 O   0  0  0  0  0  0  0  0  0  0  0  0
   -3.0269    3.8537    1.2400 N   0  0  0  0  0  4  0  0  0  0  0  0
   -2.4234    4.1942    0.2383 O   0  0  0  0  0  0  0  0  0  0  0  0
   -3.0164    4.5650    2.2286 O   0  5  0  0  0  0  0  0  0  0  0  0
   -4.8160    0.2573   -1.3205 O   0  0  0  0  0  0  0  0  0  0  0  0
   -4.0479   -0.9294   -1.2375 N   0  0  0  0  0  4  0  0  0  0  0  0
   -3.5226   -1.2424   -0.1841 O   0  0  0  0  0  0  0  0  0  0  0  0
   -3.9126   -1.6372   -2.2195 O   0  5  0  0  0  0  0  0  0  0  0  0
   -7.3066    0.9832   -0.0837 O   0  0  0  0  0  0  0  0  0  0  0  0
   -8.5424    1.6744   -0.0741 N   0  0  0  0  0  4  0  0  0  0  0  0
   -8.5589    2.8923   -0.0674 O   0  0  0  0  0  0  0  0  0  0  0  0
   -9.5888    1.0511   -0.0725 O   0  5  0  0  0  0  0  0  0  0  0  0
   -6.1745    2.4687    0.8171 H   0  0  0  0  0  0  0  0  0  0  0  0
   -6.1830    2.4784   -0.9791 H   0  0  0  0  0  0  0  0  0  0  0  0
   -2.3738    0.4098    0.9137 H   0  0  0  0  0  0  0  0  0  0  0  0
   -2.3823    0.4195   -0.8825 H   0  0  0  0  0  0  0  0  0  0  0  0
  1  2  1  0  0  0  0
  1 19  1  0  0  0  0
  1 23  1  0  0  0  0
  1 24  1  0  0  0  0
  2  3  1  1  0  0  0
  2  4  1  0  0  0  0
  2 15  1  0  0  0  0
  4  5  1  6  0  0  0
  4  6  1  0  0  0  0
  4 11  1  0  0  0  0
  6  7  1  0  0  0  0
  6 25  1  0  0  0  0
  6 26  1  0  0  0  0
  7  8  1  0  0  0  0
  8  9  2  0  0  0  0
  8 10  1  0  0  0  0
 11 12  1  0  0  0  0
 12 13  2  0  0  0  0
 12 14  1  0  0  0  0
 15 16  1  0  0  0  0
 16 17  2  0  0  0  0
 16 18  1  0  0  0  0
 19 20  1  0  0  0  0
 20 21  2  0  0  0  0
 20 22  1  0  0  0  0
M  CHG  4  10  -1  14  -1  18  -1  22  -1
M  END
$$$$
