ZINC01996784
 OpenBabel08292219463D

 53 55  0  0  1  0  0  0  0  0999 V2000
    0.5327   -0.4772   -7.1672 C   0  0  0  0  0  0  0  0  0  0  0  0
    0.9951    0.7581   -6.7532 C   0  0  0  0  0  0  0  0  0  0  0  0
    0.4859    1.3378   -5.6063 C   0  0  0  0  0  0  0  0  0  0  0  0
   -0.4862    0.6826   -4.8737 C   0  0  0  0  0  0  0  0  0  0  0  0
   -0.9451   -0.5547   -5.2850 C   0  0  0  0  0  0  0  0  0  0  0  0
   -0.4391   -1.1325   -6.4343 C   0  0  0  0  0  0  0  0  0  0  0  0
   -1.0413    1.3147   -3.6233 C   0  0  2  0  0  0  0  0  0  0  0  0
   -0.9256    2.3969   -3.6810 H   0  0  0  0  0  0  0  0  0  0  0  0
   -0.2833    0.7850   -2.4044 C   0  0  0  0  0  0  0  0  0  0  0  0
   -0.1190    0.9149    0.0078 C   0  0  0  0  0  0  0  0  0  0  0  0
   -0.7091    1.5774    1.2543 C   0  0  0  0  0  0  0  0  0  0  0  0
    0.0145    1.0786    2.4785 C   0  0  0  0  0  0  0  0  0  0  0  0
   -0.4473   -0.0419    3.1444 C   0  0  0  0  0  0  0  0  0  0  0  0
    0.2164   -0.5043    4.2638 C   0  0  0  0  0  0  0  0  0  0  0  0
    1.3428    0.1632    4.7265 C   0  0  0  0  0  0  0  0  0  0  0  0
    1.8010    1.2913    4.0586 C   0  0  0  0  0  0  0  0  0  0  0  0
    1.1356    1.7459    2.9370 C   0  0  0  0  0  0  0  0  0  0  0  0
    2.0150   -0.3001    5.8629 N   0  0  0  0  0  0  0  0  0  0  0  0
    2.6114    0.5749    6.6966 C   0  0  0  0  0  0  0  0  0  0  0  0
    2.4852    1.7676    6.5155 O   0  0  0  0  0  0  0  0  0  0  0  0
    3.4351    0.0715    7.8538 C   0  0  0  0  0  0  0  0  0  0  0  0
    3.9873    1.2429    8.6245 C   0  0  0  0  0  0  0  0  0  0  0  0
    3.7654    1.3631    9.9551 C   0  0  0  0  0  0  0  0  0  0  0  0
    4.6307    2.8879   10.3002 S   0  0  0  0  0  0  0  0  0  0  0  0
    5.1855    3.2038    8.6854 C   0  0  0  0  0  0  0  0  0  0  0  0
    4.7030    2.1722    8.0193 N   0  0  0  0  0  0  0  0  0  0  0  0
    5.9454    4.2644    8.2175 N   0  0  0  0  0  0  0  0  0  0  0  0
   -2.4275    0.9898   -3.5003 O   0  0  0  0  0  0  0  0  0  0  0  0
    0.9305   -0.9301   -8.0633 H   0  0  0  0  0  0  0  0  0  0  0  0
    1.7543    1.2700   -7.3258 H   0  0  0  0  0  0  0  0  0  0  0  0
    0.8474    2.3027   -5.2827 H   0  0  0  0  0  0  0  0  0  0  0  0
   -1.7015   -1.0685   -4.7102 H   0  0  0  0  0  0  0  0  0  0  0  0
   -0.8006   -2.0974   -6.7579 H   0  0  0  0  0  0  0  0  0  0  0  0
    0.7740    1.0328   -2.4982 H   0  0  0  0  0  0  0  0  0  0  0  0
   -0.3990   -0.2973   -2.3466 H   0  0  0  0  0  0  0  0  0  0  0  0
   -0.2336   -0.1665    0.0823 H   0  0  0  0  0  0  0  0  0  0  0  0
    0.9395    1.1636   -0.0692 H   0  0  0  0  0  0  0  0  0  0  0  0
   -0.5945    2.6588    1.1799 H   0  0  0  0  0  0  0  0  0  0  0  0
   -1.7676    1.3286    1.3314 H   0  0  0  0  0  0  0  0  0  0  0  0
   -1.3258   -0.5582    2.7864 H   0  0  0  0  0  0  0  0  0  0  0  0
   -0.1424   -1.3819    4.7810 H   0  0  0  0  0  0  0  0  0  0  0  0
    2.6766    1.8129    4.4162 H   0  0  0  0  0  0  0  0  0  0  0  0
    1.4914    2.6231    2.4172 H   0  0  0  0  0  0  0  0  0  0  0  0
    2.0517   -1.2510    6.0506 H   0  0  0  0  0  0  0  0  0  0  0  0
    2.8086   -0.5325    8.5102 H   0  0  0  0  0  0  0  0  0  0  0  0
    4.2580   -0.5360    7.4770 H   0  0  0  0  0  0  0  0  0  0  0  0
    3.2163    0.7162   10.6233 H   0  0  0  0  0  0  0  0  0  0  0  0
    6.2380    4.9583    8.8288 H   0  0  0  0  0  0  0  0  0  0  0  0
    6.1846    4.3126    7.2787 H   0  0  0  0  0  0  0  0  0  0  0  0
   -2.6055    0.0410   -3.4437 H   0  0  0  0  0  0  0  0  0  0  0  0
   -0.8324    1.4081   -1.1853 N   0  3  0  0  0  0  0  0  0  0  0  0
   -1.8290    1.1742   -1.1049 H   0  0  0  0  0  0  0  0  0  0  0  0
   -0.7240    2.4272   -1.2476 H   0  0  0  0  0  0  0  0  0  0  0  0
  1  6  2  0  0  0  0
  1  2  1  0  0  0  0
  1 29  1  0  0  0  0
  2  3  2  0  0  0  0
  2 30  1  0  0  0  0
  3  4  1  0  0  0  0
  3 31  1  0  0  0  0
  4  5  2  0  0  0  0
  4  7  1  0  0  0  0
  5  6  1  0  0  0  0
  5 32  1  0  0  0  0
  6 33  1  0  0  0  0
  7  8  1  6  0  0  0
  7  9  1  0  0  0  0
  7 28  1  0  0  0  0
  9 34  1  0  0  0  0
  9 35  1  0  0  0  0
  9 51  1  0  0  0  0
 10 11  1  0  0  0  0
 10 36  1  0  0  0  0
 10 37  1  0  0  0  0
 10 51  1  0  0  0  0
 11 12  1  0  0  0  0
 11 38  1  0  0  0  0
 11 39  1  0  0  0  0
 12 17  2  0  0  0  0
 12 13  1  0  0  0  0
 13 14  2  0  0  0  0
 13 40  1  0  0  0  0
 14 15  1  0  0  0  0
 14 41  1  0  0  0  0
 15 16  2  0  0  0  0
 15 18  1  0  0  0  0
 16 17  1  0  0  0  0
 16 42  1  0  0  0  0
 17 43  1  0  0  0  0
 18 19  1  0  0  0  0
 18 44  1  0  0  0  0
 19 20  2  0  0  0  0
 19 21  1  0  0  0  0
 21 22  1  0  0  0  0
 21 45  1  0  0  0  0
 21 46  1  0  0  0  0
 22 26  1  0  0  0  0
 22 23  2  0  0  0  0
 23 24  1  0  0  0  0
 23 47  1  0  0  0  0
 24 25  1  0  0  0  0
 25 26  2  0  0  0  0
 25 27  1  0  0  0  0
 27 48  1  0  0  0  0
 27 49  1  0  0  0  0
 28 50  1  0  0  0  0
 51 52  1  0  0  0  0
 51 53  1  0  0  0  0
M  CHG  1  51   1
M  END
$$$$
