ZINC22066984
 OpenBabel08292219463D

 23 23  0  0  1  0  0  0  0  0999 V2000
   -0.1614    1.4188   -0.0789 C   0  0  0  0  0  0  0  0  0  0  0  0
    0.9904    2.1645    0.0759 C   0  0  0  0  0  0  0  0  0  0  0  0
    2.1950    1.5342    0.3348 C   0  0  0  0  0  0  0  0  0  0  0  0
    2.2492    0.1553    0.4394 C   0  0  0  0  0  0  0  0  0  0  0  0
    1.1008   -0.5959    0.2855 C   0  0  0  0  0  0  0  0  0  0  0  0
   -0.1101    0.0340    0.0255 C   0  0  0  0  0  0  0  0  0  0  0  0
   -1.5778   -0.9210   -0.1709 S   0  0  0  0  0  0  0  0  0  0  0  0
   -0.9900   -2.6371   -0.1557 C   0  0  1  0  0  0  0  0  0  0  0  0
   -2.3911   -3.7564    0.1720 P   0  0  0  0  0  0  0  0  0  0  0  0
   -3.0161   -3.4160    1.5676 O   0  0  0  0  0  0  0  0  0  0  0  0
   -3.4757   -3.5759   -0.9440 O   0  0  0  0  0  1  0  0  0  0  0  0
   -1.8855   -5.2392    0.1739 O   0  0  0  0  0  1  0  0  0  0  0  0
   -0.2544   -3.0418   -1.7738 P   0  0  1  0  0  0  0  0  0  0  0  0
   -1.3400   -2.9538   -2.8696 O   0  0  0  0  0  0  0  0  0  0  0  0
    0.8785   -2.0398   -2.0896 O   0  0  0  0  0  1  0  0  0  0  0  0
    0.3461   -4.5350   -1.7320 O   0  0  0  0  0  0  0  0  0  0  0  0
    3.6410    2.4752    0.5283 Cl  0  0  0  0  0  0  0  0  0  0  0  0
   -1.1019    1.9115   -0.2765 H   0  0  0  0  0  0  0  0  0  0  0  0
    0.9512    3.2407   -0.0054 H   0  0  0  0  0  0  0  0  0  0  0  0
    3.1908   -0.3338    0.6411 H   0  0  0  0  0  0  0  0  0  0  0  0
    1.1439   -1.6720    0.3668 H   0  0  0  0  0  0  0  0  0  0  0  0
   -0.2389   -2.7569    0.6251 H   0  0  0  0  0  0  0  0  0  0  0  0
    0.7544   -4.8182   -2.5616 H   0  0  0  0  0  0  0  0  0  0  0  0
  1  6  2  0  0  0  0
  1  2  1  0  0  0  0
  1 18  1  0  0  0  0
  2  3  2  0  0  0  0
  2 19  1  0  0  0  0
  3  4  1  0  0  0  0
  3 17  1  0  0  0  0
  4  5  2  0  0  0  0
  4 20  1  0  0  0  0
  5  6  1  0  0  0  0
  5 21  1  0  0  0  0
  6  7  1  0  0  0  0
  7  8  1  0  0  0  0
  8  9  1  0  0  0  0
  8 13  1  0  0  0  0
  8 22  1  1  0  0  0
  9 10  2  0  0  0  0
  9 11  1  0  0  0  0
  9 12  1  0  0  0  0
 13 14  2  6  0  0  0
 13 15  1  0  0  0  0
 13 16  1  0  0  0  0
 16 23  1  0  0  0  0
M  END
$$$$
