ZINC03813061
 OpenBabel08292219463D

 44 45  0  0  0  0  0  0  0  0999 V2000
   -0.0187    1.5258    0.0104 C   0  0  0  0  0  0  0  0  0  0  0  0
    0.0021   -0.0041    0.0020 C   0  0  0  0  0  0  0  0  0  0  0  0
    0.7182   -0.4975   -1.2568 C   0  0  0  0  0  0  0  0  0  0  0  0
    0.7390   -2.0273   -1.2652 C   0  0  0  0  0  0  0  0  0  0  0  0
    1.4247   -2.4998   -2.4705 N   0  0  0  0  0  0  0  0  0  0  0  0
    1.5691   -3.8728   -2.7008 C   0  0  0  0  0  0  0  0  0  0  0  0
    1.0598   -4.7834   -1.7939 C   0  0  0  0  0  0  0  0  0  0  0  0
    1.2065   -6.1548   -2.0281 C   0  0  0  0  0  0  0  0  0  0  0  0
    1.8676   -6.5978   -3.1784 C   0  0  0  0  0  0  0  0  0  0  0  0
    2.3730   -5.6850   -4.0777 C   0  0  0  0  0  0  0  0  0  0  0  0
    2.2226   -4.3235   -3.8495 C   0  0  0  0  0  0  0  0  0  0  0  0
    2.7170   -3.4286   -4.7425 O   0  0  0  0  0  0  0  0  0  0  0  0
    3.9940   -2.9966   -4.5723 C   0  0  0  0  0  0  0  0  0  0  0  0
    4.7538   -3.4737   -3.5137 C   0  0  0  0  0  0  0  0  0  0  0  0
    6.0518   -3.0329   -3.3429 C   0  0  0  0  0  0  0  0  0  0  0  0
    6.5940   -2.1171   -4.2256 C   0  0  0  0  0  0  0  0  0  0  0  0
    5.8390   -1.6401   -5.2813 C   0  0  0  0  0  0  0  0  0  0  0  0
    4.5425   -2.0819   -5.4600 C   0  0  0  0  0  0  0  0  0  0  0  0
    3.2056   -6.2466   -5.5254 S   0  0  0  0  0  0  0  0  0  0  0  0
    4.4236   -5.5185   -5.6016 O   0  0  0  0  0  0  0  0  0  0  0  0
    3.1679   -7.6666   -5.4906 O   0  0  0  0  0  0  0  0  0  0  0  0
    2.2935   -5.7806   -6.8266 N   0  0  0  0  0  0  0  0  0  0  0  0
    0.6667   -7.1296   -1.0656 C   0  0  0  0  0  0  0  0  0  0  0  0
    0.0891   -6.7406   -0.0598 O   0  0  0  0  0  0  0  0  0  0  0  0
    0.7958   -8.3286   -1.2718 O   0  0  0  0  0  1  0  0  0  0  0  0
    1.0039    1.9031    0.0027 H   0  0  0  0  0  0  0  0  0  0  0  0
   -0.5459    1.8868   -0.8726 H   0  0  0  0  0  0  0  0  0  0  0  0
   -0.5289    1.8773    0.9072 H   0  0  0  0  0  0  0  0  0  0  0  0
    0.5293   -0.3651    0.8851 H   0  0  0  0  0  0  0  0  0  0  0  0
   -1.0205   -0.3814    0.0098 H   0  0  0  0  0  0  0  0  0  0  0  0
    0.1910   -0.1364   -2.1398 H   0  0  0  0  0  0  0  0  0  0  0  0
    1.7408   -0.1202   -1.2645 H   0  0  0  0  0  0  0  0  0  0  0  0
    1.2661   -2.3884   -0.3821 H   0  0  0  0  0  0  0  0  0  0  0  0
   -0.2836   -2.4046   -1.2575 H   0  0  0  0  0  0  0  0  0  0  0  0
    1.7786   -1.8611   -3.1090 H   0  0  0  0  0  0  0  0  0  0  0  0
    0.5504   -4.4370   -0.9068 H   0  0  0  0  0  0  0  0  0  0  0  0
    1.9821   -7.6560   -3.3614 H   0  0  0  0  0  0  0  0  0  0  0  0
    4.3307   -4.1888   -2.8237 H   0  0  0  0  0  0  0  0  0  0  0  0
    6.6435   -3.4037   -2.5190 H   0  0  0  0  0  0  0  0  0  0  0  0
    7.6089   -1.7735   -4.0901 H   0  0  0  0  0  0  0  0  0  0  0  0
    6.2649   -0.9248   -5.9693 H   0  0  0  0  0  0  0  0  0  0  0  0
    3.9547   -1.7124   -6.2873 H   0  0  0  0  0  0  0  0  0  0  0  0
    1.4676   -5.2907   -6.6895 H   0  0  0  0  0  0  0  0  0  0  0  0
    2.5852   -5.9975   -7.7260 H   0  0  0  0  0  0  0  0  0  0  0  0
  1  2  1  0  0  0  0
  1 26  1  0  0  0  0
  1 27  1  0  0  0  0
  1 28  1  0  0  0  0
  2  3  1  0  0  0  0
  2 29  1  0  0  0  0
  2 30  1  0  0  0  0
  3  4  1  0  0  0  0
  3 31  1  0  0  0  0
  3 32  1  0  0  0  0
  4  5  1  0  0  0  0
  4 33  1  0  0  0  0
  4 34  1  0  0  0  0
  5  6  1  0  0  0  0
  5 35  1  0  0  0  0
  6 11  2  0  0  0  0
  6  7  1  0  0  0  0
  7  8  2  0  0  0  0
  7 36  1  0  0  0  0
  8  9  1  0  0  0  0
  8 23  1  0  0  0  0
  9 10  2  0  0  0  0
  9 37  1  0  0  0  0
 10 11  1  0  0  0  0
 10 19  1  0  0  0  0
 11 12  1  0  0  0  0
 12 13  1  0  0  0  0
 13 18  2  0  0  0  0
 13 14  1  0  0  0  0
 14 15  2  0  0  0  0
 14 38  1  0  0  0  0
 15 16  1  0  0  0  0
 15 39  1  0  0  0  0
 16 17  2  0  0  0  0
 16 40  1  0  0  0  0
 17 18  1  0  0  0  0
 17 41  1  0  0  0  0
 18 42  1  0  0  0  0
 19 20  2  0  0  0  0
 19 21  2  0  0  0  0
 19 22  1  0  0  0  0
 22 43  1  0  0  0  0
 22 44  1  0  0  0  0
 23 24  2  0  0  0  0
 23 25  1  0  0  0  0
M  END
$$$$
