ZINC19632610
 OpenBabel08292219463D

 44 45  0  0  1  0  0  0  0  0999 V2000
   -2.4857   -0.9297    0.1672 C   0  0  0  0  0  0  0  0  0  0  0  0
   -0.9721   -1.0859    0.0076 C   0  0  0  0  0  0  0  0  0  0  0  0
   -0.4195   -1.6255    1.2099 O   0  0  0  0  0  0  0  0  0  0  0  0
    0.9147   -1.8266    1.2346 C   0  0  0  0  0  0  0  0  0  0  0  0
    1.5898   -1.5506    0.2605 O   0  0  0  0  0  0  0  0  0  0  0  0
    1.5283   -2.3580    2.3926 C   0  0  0  0  0  0  0  0  0  0  0  0
    1.4893   -3.6844    2.6076 C   0  0  0  0  0  0  0  0  0  0  0  0
    2.0803   -4.2328    3.7130 N   0  0  0  0  0  0  0  0  0  0  0  0
    3.0122   -3.5238    4.4208 C   0  0  0  0  0  0  0  0  0  0  0  0
    3.1141   -2.1906    4.2821 C   0  0  0  0  0  0  0  0  0  0  0  0
    2.2151   -1.4287    3.3527 C   0  0  2  0  0  0  0  0  0  0  0  0
    2.8061   -0.7052    2.7913 H   0  0  0  0  0  0  0  0  0  0  0  0
    1.1767   -0.6972    4.1638 C   0  0  0  0  0  0  0  0  0  0  0  0
    0.2954   -1.4058    4.9590 C   0  0  0  0  0  0  0  0  0  0  0  0
   -0.6573   -0.7357    5.7032 C   0  0  0  0  0  0  0  0  0  0  0  0
   -0.7302    0.6440    5.6528 C   0  0  0  0  0  0  0  0  0  0  0  0
    0.1506    1.3545    4.8578 C   0  0  0  0  0  0  0  0  0  0  0  0
    1.1092    0.6834    4.1169 C   0  0  0  0  0  0  0  0  0  0  0  0
    2.2206    1.5742    3.1245 Cl  0  0  0  0  0  0  0  0  0  0  0  0
    0.0595    3.0869    4.7941 Cl  0  0  0  0  0  0  0  0  0  0  0  0
    4.0937   -1.4907    5.0240 C   0  0  0  0  0  0  0  0  0  0  0  0
    4.8330   -2.0954    5.7780 O   0  0  0  0  0  0  0  0  0  0  0  0
    4.2086   -0.1523    4.8957 O   0  0  0  0  0  0  0  0  0  0  0  0
    5.2197    0.4897    5.6752 C   0  0  0  0  0  0  0  0  0  0  0  0
    3.9353   -4.2462    5.3680 C   0  0  0  0  0  0  0  0  0  0  0  0
    0.7865   -4.5783    1.6187 C   0  0  0  0  0  0  0  0  0  0  0  0
   -2.6958   -0.2560    0.9980 H   0  0  0  0  0  0  0  0  0  0  0  0
   -2.9072   -0.5180   -0.7498 H   0  0  0  0  0  0  0  0  0  0  0  0
   -2.9324   -1.9036    0.3672 H   0  0  0  0  0  0  0  0  0  0  0  0
   -0.7619   -1.7595   -0.8232 H   0  0  0  0  0  0  0  0  0  0  0  0
   -0.5254   -0.1120   -0.1924 H   0  0  0  0  0  0  0  0  0  0  0  0
    1.8374   -5.1281    3.9964 H   0  0  0  0  0  0  0  0  0  0  0  0
    0.3511   -2.4836    4.9985 H   0  0  0  0  0  0  0  0  0  0  0  0
   -1.3453   -1.2902    6.3241 H   0  0  0  0  0  0  0  0  0  0  0  0
   -1.4754    1.1669    6.2339 H   0  0  0  0  0  0  0  0  0  0  0  0
    5.0299    0.3121    6.7338 H   0  0  0  0  0  0  0  0  0  0  0  0
    6.1960    0.0850    5.4083 H   0  0  0  0  0  0  0  0  0  0  0  0
    5.2045    1.5616    5.4782 H   0  0  0  0  0  0  0  0  0  0  0  0
    3.7104   -5.3126    5.3518 H   0  0  0  0  0  0  0  0  0  0  0  0
    4.9687   -4.0880    5.0595 H   0  0  0  0  0  0  0  0  0  0  0  0
    3.7943   -3.8605    6.3776 H   0  0  0  0  0  0  0  0  0  0  0  0
    1.5013   -4.9299    0.8747 H   0  0  0  0  0  0  0  0  0  0  0  0
    0.3573   -5.4326    2.1423 H   0  0  0  0  0  0  0  0  0  0  0  0
   -0.0076   -4.0191    1.1239 H   0  0  0  0  0  0  0  0  0  0  0  0
  1  2  1  0  0  0  0
  1 27  1  0  0  0  0
  1 28  1  0  0  0  0
  1 29  1  0  0  0  0
  2  3  1  0  0  0  0
  2 30  1  0  0  0  0
  2 31  1  0  0  0  0
  3  4  1  0  0  0  0
  4  5  2  0  0  0  0
  4  6  1  0  0  0  0
  6 11  1  0  0  0  0
  6  7  2  0  0  0  0
  7  8  1  0  0  0  0
  7 26  1  0  0  0  0
  8  9  1  0  0  0  0
  8 32  1  0  0  0  0
  9 10  2  0  0  0  0
  9 25  1  0  0  0  0
 10 11  1  0  0  0  0
 10 21  1  0  0  0  0
 11 12  1  6  0  0  0
 11 13  1  0  0  0  0
 13 18  2  0  0  0  0
 13 14  1  0  0  0  0
 14 15  2  0  0  0  0
 14 33  1  0  0  0  0
 15 16  1  0  0  0  0
 15 34  1  0  0  0  0
 16 17  2  0  0  0  0
 16 35  1  0  0  0  0
 17 18  1  0  0  0  0
 17 20  1  0  0  0  0
 18 19  1  0  0  0  0
 21 22  2  0  0  0  0
 21 23  1  0  0  0  0
 23 24  1  0  0  0  0
 24 36  1  0  0  0  0
 24 37  1  0  0  0  0
 24 38  1  0  0  0  0
 25 39  1  0  0  0  0
 25 40  1  0  0  0  0
 25 41  1  0  0  0  0
 26 42  1  0  0  0  0
 26 43  1  0  0  0  0
 26 44  1  0  0  0  0
M  END
$$$$
