ZINC00597260
 OpenBabel08292219463D

 47 48  0  0  1  0  0  0  0  0999 V2000
   -0.0184    1.5028    0.0103 C   0  0  0  0  0  0  0  0  0  0  0  0
    0.0021   -0.0041    0.0020 C   0  0  0  0  0  0  0  0  0  0  0  0
   -1.1584   -0.6819    0.0039 C   0  0  0  0  0  0  0  0  0  0  0  0
   -1.1953   -2.1833    0.0049 C   0  0  1  0  0  0  0  0  0  0  0  0
   -1.9523   -2.5238   -0.7016 H   0  0  0  0  0  0  0  0  0  0  0  0
    0.1388   -2.7510   -0.3887 C   0  0  0  0  0  0  0  0  0  0  0  0
    1.2602   -1.9885   -0.3765 C   0  0  0  0  0  0  0  0  0  0  0  0
    1.2005   -0.6611   -0.0130 N   0  0  0  0  0  0  0  0  0  0  0  0
    2.5162   -2.5665   -0.7492 C   0  0  0  0  0  0  0  0  0  0  0  0
    3.5127   -3.0249   -1.0449 N   0  0  0  0  0  0  0  0  0  0  0  0
    0.2272   -4.1093   -0.7797 C   0  0  0  0  0  0  0  0  0  0  0  0
    1.3016   -4.5812   -1.1007 O   0  0  0  0  0  0  0  0  0  0  0  0
   -0.8804   -4.8802   -0.7961 O   0  0  0  0  0  0  0  0  0  0  0  0
   -0.7178   -6.2409   -1.2009 C   0  0  0  0  0  0  0  0  0  0  0  0
   -1.5519   -2.6694    1.3860 C   0  0  0  0  0  0  0  0  0  0  0  0
   -0.7465   -2.3458    2.4621 C   0  0  0  0  0  0  0  0  0  0  0  0
   -1.0736   -2.7916    3.7288 C   0  0  0  0  0  0  0  0  0  0  0  0
   -2.2064   -3.5610    3.9199 C   0  0  0  0  0  0  0  0  0  0  0  0
   -3.0120   -3.8838    2.8442 C   0  0  0  0  0  0  0  0  0  0  0  0
   -2.6871   -3.4342    1.5777 C   0  0  0  0  0  0  0  0  0  0  0  0
   -4.2244   -4.7078    3.0486 N   0  0  0  0  0  4  0  0  0  0  0  0
   -4.5101   -5.0986    4.1565 O   0  0  0  0  0  0  0  0  0  0  0  0
   -4.9291   -4.9902    2.1077 O   0  5  0  0  0  0  0  0  0  0  0  0
   -2.3759    0.0369    0.0054 C   0  0  0  0  0  0  0  0  0  0  0  0
   -2.3640    1.2537    0.0050 O   0  0  0  0  0  0  0  0  0  0  0  0
   -3.5511   -0.6265    0.0073 O   0  0  0  0  0  0  0  0  0  0  0  0
   -4.7420    0.1635    0.0087 C   0  0  0  0  0  0  0  0  0  0  0  0
   -5.1690    0.4450   -1.4332 C   0  0  0  0  0  0  0  0  0  0  0  0
   -5.8565   -0.5954    0.7318 C   0  0  0  0  0  0  0  0  0  0  0  0
    1.0042    1.8801    0.0026 H   0  0  0  0  0  0  0  0  0  0  0  0
   -0.5455    1.8639   -0.8728 H   0  0  0  0  0  0  0  0  0  0  0  0
   -0.5286    1.8543    0.9071 H   0  0  0  0  0  0  0  0  0  0  0  0
    2.0124   -0.1924    0.2363 H   0  0  0  0  0  0  0  0  0  0  0  0
   -0.0233   -6.7404   -0.5254 H   0  0  0  0  0  0  0  0  0  0  0  0
   -1.6826   -6.7471   -1.1695 H   0  0  0  0  0  0  0  0  0  0  0  0
   -0.3234   -6.2732   -2.2165 H   0  0  0  0  0  0  0  0  0  0  0  0
    0.1383   -1.7448    2.3129 H   0  0  0  0  0  0  0  0  0  0  0  0
   -0.4441   -2.5394    4.5694 H   0  0  0  0  0  0  0  0  0  0  0  0
   -2.4615   -3.9100    4.9095 H   0  0  0  0  0  0  0  0  0  0  0  0
   -3.3186   -3.6833    0.7378 H   0  0  0  0  0  0  0  0  0  0  0  0
   -4.5520    1.1061    0.5220 H   0  0  0  0  0  0  0  0  0  0  0  0
   -6.0773    1.0475   -1.4321 H   0  0  0  0  0  0  0  0  0  0  0  0
   -4.3750    0.9856   -1.9484 H   0  0  0  0  0  0  0  0  0  0  0  0
   -5.3589   -0.4977   -1.9465 H   0  0  0  0  0  0  0  0  0  0  0  0
   -5.5523   -0.7959    1.7591 H   0  0  0  0  0  0  0  0  0  0  0  0
   -6.7648    0.0071    0.7329 H   0  0  0  0  0  0  0  0  0  0  0  0
   -6.0464   -1.5380    0.2185 H   0  0  0  0  0  0  0  0  0  0  0  0
  1  2  1  0  0  0  0
  1 30  1  0  0  0  0
  1 31  1  0  0  0  0
  1 32  1  0  0  0  0
  2  8  1  0  0  0  0
  2  3  2  0  0  0  0
  3  4  1  0  0  0  0
  3 24  1  0  0  0  0
  4  5  1  6  0  0  0
  4  6  1  0  0  0  0
  4 15  1  0  0  0  0
  6  7  2  0  0  0  0
  6 11  1  0  0  0  0
  7  8  1  0  0  0  0
  7  9  1  0  0  0  0
  8 33  1  0  0  0  0
  9 10  3  0  0  0  0
 11 12  2  0  0  0  0
 11 13  1  0  0  0  0
 13 14  1  0  0  0  0
 14 34  1  0  0  0  0
 14 35  1  0  0  0  0
 14 36  1  0  0  0  0
 15 20  2  0  0  0  0
 15 16  1  0  0  0  0
 16 17  2  0  0  0  0
 16 37  1  0  0  0  0
 17 18  1  0  0  0  0
 17 38  1  0  0  0  0
 18 19  2  0  0  0  0
 18 39  1  0  0  0  0
 19 20  1  0  0  0  0
 19 21  1  0  0  0  0
 20 40  1  0  0  0  0
 21 22  2  0  0  0  0
 21 23  1  0  0  0  0
 24 25  2  0  0  0  0
 24 26  1  0  0  0  0
 26 27  1  0  0  0  0
 27 28  1  0  0  0  0
 27 29  1  0  0  0  0
 27 41  1  0  0  0  0
 28 42  1  0  0  0  0
 28 43  1  0  0  0  0
 28 44  1  0  0  0  0
 29 45  1  0  0  0  0
 29 46  1  0  0  0  0
 29 47  1  0  0  0  0
M  CHG  1  23  -1
M  END
$$$$
