ZINC01531007
 OpenBabel08292219463D

 28 27  0  0  1  0  0  0  0  0999 V2000
    1.2864    1.5618   -0.0018 C   0  0  0  0  0  0  0  0  0  0  0  0
    1.1449    3.0852    0.0077 C   0  0  2  0  0  0  0  0  0  0  0  0
    0.5164    3.3969   -0.8265 H   0  0  0  0  0  0  0  0  0  0  0  0
    2.5273    3.7266   -0.1278 C   0  0  2  0  0  0  0  0  0  0  0  0
    3.1558    3.4149    0.7064 H   0  0  0  0  0  0  0  0  0  0  0  0
    2.3858    5.2500   -0.1183 C   0  0  1  0  0  0  0  0  0  0  0  0
    2.0115    5.5741    0.8528 H   0  0  0  0  0  0  0  0  0  0  0  0
    3.7507    5.8906   -0.3784 C   0  0  2  0  0  0  0  0  0  0  0  0
    4.4242    5.6584    0.4466 H   0  0  0  0  0  0  0  0  0  0  0  0
    3.5886    7.4077   -0.4928 C   0  0  2  0  0  0  0  0  0  0  0  0
    2.9151    7.6399   -1.3178 H   0  0  0  0  0  0  0  0  0  0  0  0
    4.9330    8.0386   -0.7490 C   0  0  0  0  0  0  0  0  0  0  0  0
    5.4208    8.7764    0.0742 O   0  0  0  0  0  0  0  0  0  0  0  0
    3.0453    7.9219    0.7248 O   0  0  0  0  0  0  0  0  0  0  0  0
    4.2940    5.3764   -1.5959 O   0  0  0  0  0  0  0  0  0  0  0  0
    1.4697    5.6497   -1.1395 O   0  0  0  0  0  0  0  0  0  0  0  0
    3.1266    3.3116   -1.3569 O   0  0  0  0  0  0  0  0  0  0  0  0
    0.5456    3.5002    1.2368 O   0  0  0  0  0  0  0  0  0  0  0  0
   -0.0110    0.9628    0.0073 O   0  0  0  0  0  0  0  0  0  0  0  0
    1.8401    1.2428    0.8812 H   0  0  0  0  0  0  0  0  0  0  0  0
    1.8231    1.2523   -0.8987 H   0  0  0  0  0  0  0  0  0  0  0  0
    3.5935    7.7514    1.5030 H   0  0  0  0  0  0  0  0  0  0  0  0
    3.7458    5.5469   -2.3741 H   0  0  0  0  0  0  0  0  0  0  0  0
    1.7395    5.3938   -2.0321 H   0  0  0  0  0  0  0  0  0  0  0  0
    2.6203    3.5560   -2.1436 H   0  0  0  0  0  0  0  0  0  0  0  0
    1.0519    3.2558    2.0235 H   0  0  0  0  0  0  0  0  0  0  0  0
    0.0021   -0.0041    0.0020 H   0  0  0  0  0  0  0  0  0  0  0  0
    5.5885    7.7810   -1.8916 O   0  0  0  0  0  1  0  0  0  0  0  0
  1  2  1  0  0  0  0
  1 19  1  0  0  0  0
  1 20  1  0  0  0  0
  1 21  1  0  0  0  0
  2  3  1  6  0  0  0
  2  4  1  0  0  0  0
  2 18  1  0  0  0  0
  4  5  1  1  0  0  0
  4  6  1  0  0  0  0
  4 17  1  0  0  0  0
  6  7  1  1  0  0  0
  6  8  1  0  0  0  0
  6 16  1  0  0  0  0
  8  9  1  1  0  0  0
  8 10  1  0  0  0  0
  8 15  1  0  0  0  0
 10 11  1  6  0  0  0
 10 12  1  0  0  0  0
 10 14  1  0  0  0  0
 12 13  2  0  0  0  0
 12 28  1  0  0  0  0
 14 22  1  0  0  0  0
 15 23  1  0  0  0  0
 16 24  1  0  0  0  0
 17 25  1  0  0  0  0
 18 26  1  0  0  0  0
 19 27  1  0  0  0  0
M  END
$$$$
