ZINC02012726
 OpenBabel08292219463D

 43 46  0  0  1  0  0  0  0  0999 V2000
    2.6812    7.0849    2.2935 C   0  0  0  0  0  0  0  0  0  0  0  0
    3.0266    5.7552    1.6741 C   0  0  0  0  0  0  0  0  0  0  0  0
    4.3051    5.3422    1.6270 C   0  0  0  0  0  0  0  0  0  0  0  0
    4.6057    4.1238    0.9724 C   0  0  0  0  0  0  0  0  0  0  0  0
    5.6627    3.5582    1.1845 O   0  0  0  0  0  0  0  0  0  0  0  0
    3.7030    3.5884    0.1035 N   0  0  0  0  0  0  0  0  0  0  0  0
    4.2268    2.5688   -0.7996 C   0  0  0  0  0  0  0  0  0  0  0  0
    3.6926    1.2222   -0.4713 C   0  0  0  0  0  0  0  0  0  0  0  0
    4.4346    0.2765   -0.6327 O   0  0  0  0  0  0  0  0  0  0  0  0
    2.4914    0.9698   -0.0231 N   0  0  0  0  0  0  0  0  0  0  0  0
    1.3308    1.7194   -0.0493 C   0  0  0  0  0  0  0  0  0  0  0  0
    0.1524    0.9559   -0.0880 C   0  0  0  0  0  0  0  0  0  0  0  0
   -1.0880    1.5436   -0.1202 C   0  0  0  0  0  0  0  0  0  0  0  0
   -1.1804    2.9249   -0.1041 C   0  0  0  0  0  0  0  0  0  0  0  0
   -0.0315    3.6782   -0.0590 C   0  0  0  0  0  0  0  0  0  0  0  0
    1.2394    3.0897   -0.0221 C   0  0  0  0  0  0  0  0  0  0  0  0
    2.3576    4.0857    0.0548 C   0  0  1  0  0  0  0  0  0  0  0  0
    2.0603    4.9751    1.1664 O   0  0  0  0  0  0  0  0  0  0  0  0
    2.2570    4.9380   -1.1840 C   0  0  0  0  0  0  0  0  0  0  0  0
    2.0333    6.2975   -1.0714 C   0  0  0  0  0  0  0  0  0  0  0  0
    1.9450    7.0798   -2.2077 C   0  0  0  0  0  0  0  0  0  0  0  0
    2.0722    6.5014   -3.4567 C   0  0  0  0  0  0  0  0  0  0  0  0
    2.2907    5.1411   -3.5695 C   0  0  0  0  0  0  0  0  0  0  0  0
    2.3828    4.3594   -2.4331 C   0  0  0  0  0  0  0  0  0  0  0  0
   -2.7337    3.6990   -0.1477 Cl  0  0  0  0  0  0  0  0  0  0  0  0
    2.3504   -0.3382    0.6214 C   0  0  0  0  0  0  0  0  0  0  0  0
    3.5918    7.5685    2.6471 H   0  0  0  0  0  0  0  0  0  0  0  0
    2.1992    7.7183    1.5488 H   0  0  0  0  0  0  0  0  0  0  0  0
    2.0028    6.9297    3.1324 H   0  0  0  0  0  0  0  0  0  0  0  0
    5.0894    5.9302    2.0804 H   0  0  0  0  0  0  0  0  0  0  0  0
    3.9487    2.8225   -1.8225 H   0  0  0  0  0  0  0  0  0  0  0  0
    5.3138    2.5483   -0.7211 H   0  0  0  0  0  0  0  0  0  0  0  0
    0.2240   -0.1217   -0.0969 H   0  0  0  0  0  0  0  0  0  0  0  0
   -1.9803    0.9361   -0.1534 H   0  0  0  0  0  0  0  0  0  0  0  0
   -0.1108    4.7553   -0.0521 H   0  0  0  0  0  0  0  0  0  0  0  0
    1.9306    6.7488   -0.0957 H   0  0  0  0  0  0  0  0  0  0  0  0
    1.7739    8.1426   -2.1196 H   0  0  0  0  0  0  0  0  0  0  0  0
    2.0005    7.1122   -4.3445 H   0  0  0  0  0  0  0  0  0  0  0  0
    2.3897    4.6891   -4.5454 H   0  0  0  0  0  0  0  0  0  0  0  0
    2.5535    3.2966   -2.5212 H   0  0  0  0  0  0  0  0  0  0  0  0
    2.0655   -1.0814   -0.1234 H   0  0  0  0  0  0  0  0  0  0  0  0
    3.2994   -0.6239    1.0752 H   0  0  0  0  0  0  0  0  0  0  0  0
    1.5814   -0.2827    1.3919 H   0  0  0  0  0  0  0  0  0  0  0  0
  1  2  1  0  0  0  0
  1 27  1  0  0  0  0
  1 28  1  0  0  0  0
  1 29  1  0  0  0  0
  2 18  1  0  0  0  0
  2  3  2  0  0  0  0
  3  4  1  0  0  0  0
  3 30  1  0  0  0  0
  4  5  2  0  0  0  0
  4  6  1  0  0  0  0
  6 17  1  0  0  0  0
  6  7  1  0  0  0  0
  7  8  1  0  0  0  0
  7 31  1  0  0  0  0
  7 32  1  0  0  0  0
  8  9  2  0  0  0  0
  8 10  1  0  0  0  0
 10 11  1  0  0  0  0
 10 26  1  0  0  0  0
 11 16  2  0  0  0  0
 11 12  1  0  0  0  0
 12 13  2  0  0  0  0
 12 33  1  0  0  0  0
 13 14  1  0  0  0  0
 13 34  1  0  0  0  0
 14 15  2  0  0  0  0
 14 25  1  0  0  0  0
 15 16  1  0  0  0  0
 15 35  1  0  0  0  0
 16 17  1  0  0  0  0
 17 18  1  0  0  0  0
 17 19  1  6  0  0  0
 19 24  2  0  0  0  0
 19 20  1  0  0  0  0
 20 21  2  0  0  0  0
 20 36  1  0  0  0  0
 21 22  1  0  0  0  0
 21 37  1  0  0  0  0
 22 23  2  0  0  0  0
 22 38  1  0  0  0  0
 23 24  1  0  0  0  0
 23 39  1  0  0  0  0
 24 40  1  0  0  0  0
 26 41  1  0  0  0  0
 26 42  1  0  0  0  0
 26 43  1  0  0  0  0
M  END
$$$$
