ZINC01530810
 OpenBabel08292219463D

 15 14  0  0  0  0  0  0  0  0999 V2000
   -0.0173    1.4248    0.0099 C   0  0  0  0  0  0  0  0  0  0  0  0
    0.0021   -0.0041    0.0020 O   0  0  0  0  0  0  0  0  0  0  0  0
    0.3598   -0.5874    1.2565 C   0  0  0  0  0  0  0  0  0  0  0  0
   -0.3280   -1.9463    1.4017 C   0  0  0  0  0  0  0  0  0  0  0  0
    0.0802   -2.7890    0.3623 F   0  0  0  0  0  0  0  0  0  0  0  0
    0.0223   -2.5174    2.6299 F   0  0  0  0  0  0  0  0  0  0  0  0
   -1.7153   -1.7752    1.3457 F   0  0  0  0  0  0  0  0  0  0  0  0
    1.8771   -0.7746    1.3177 C   0  0  0  0  0  0  0  0  0  0  0  0
    2.5060    0.4680    1.1850 F   0  0  0  0  0  0  0  0  0  0  0  0
    2.2273   -1.3457    2.5459 F   0  0  0  0  0  0  0  0  0  0  0  0
    2.2853   -1.6173    0.2783 F   0  0  0  0  0  0  0  0  0  0  0  0
    1.2952    1.9090   -0.0001 F   0  0  0  0  0  0  0  0  0  0  0  0
   -0.5445    1.7859   -0.8732 H   0  0  0  0  0  0  0  0  0  0  0  0
   -0.5275    1.7763    0.9067 H   0  0  0  0  0  0  0  0  0  0  0  0
    0.0418    0.0692    2.0664 H   0  0  0  0  0  0  0  0  0  0  0  0
  1  2  1  0  0  0  0
  1 12  1  0  0  0  0
  1 13  1  0  0  0  0
  1 14  1  0  0  0  0
  2  3  1  0  0  0  0
  3  4  1  0  0  0  0
  3  8  1  0  0  0  0
  3 15  1  0  0  0  0
  4  5  1  0  0  0  0
  4  6  1  0  0  0  0
  4  7  1  0  0  0  0
  8  9  1  0  0  0  0
  8 10  1  0  0  0  0
  8 11  1  0  0  0  0
M  END
$$$$
