ZINC04214740
 OpenBabel08292219463D

 44 47  0  0  0  0  0  0  0  0999 V2000
    5.7263   -0.9730   -2.2204 C   0  0  0  0  0  0  0  0  0  0  0  0
    6.8654    0.1498   -0.4026 C   0  0  0  0  0  0  0  0  0  0  0  0
    5.2385    1.3486   -1.7363 C   0  0  0  0  0  0  0  0  0  0  0  0
    4.8970    2.3026   -0.6207 C   0  0  0  0  0  0  0  0  0  0  0  0
    5.7383    3.0308    0.0661 N   0  0  0  0  0  0  0  0  0  0  0  0
    5.1001    3.7407    0.9306 N   0  0  0  0  0  0  0  0  0  0  0  0
    3.8229    3.5095    0.8291 C   0  0  0  0  0  0  0  0  0  0  0  0
    3.6558    2.5697   -0.1357 N   0  0  0  0  0  0  0  0  0  0  0  0
    2.4439    1.9931   -0.5187 C   0  0  0  0  0  0  0  0  0  0  0  0
    2.4319    0.6436   -0.8553 C   0  0  0  0  0  0  0  0  0  0  0  0
    1.2520    0.0188   -1.2010 C   0  0  0  0  0  0  0  0  0  0  0  0
    0.0655    0.7350   -1.2070 C   0  0  0  0  0  0  0  0  0  0  0  0
    0.0623    2.0729   -0.8826 C   0  0  0  0  0  0  0  0  0  0  0  0
    1.2568    2.7280   -0.5465 C   0  0  0  0  0  0  0  0  0  0  0  0
    1.2006    4.1690   -0.2778 C   0  0  0  0  0  0  0  0  0  0  0  0
    1.8235    4.8279    0.6356 N   0  0  0  0  0  0  0  0  0  0  0  0
    2.7077    4.1669    1.6020 C   0  0  0  0  0  0  0  0  0  0  0  0
    0.3192    4.9625   -1.1656 C   0  0  0  0  0  0  0  0  0  0  0  0
    0.0232    4.5046   -2.4493 C   0  0  0  0  0  0  0  0  0  0  0  0
   -0.8022    5.2458   -3.2698 C   0  0  0  0  0  0  0  0  0  0  0  0
   -1.3270    6.4463   -2.8255 C   0  0  0  0  0  0  0  0  0  0  0  0
   -1.0331    6.9081   -1.5549 C   0  0  0  0  0  0  0  0  0  0  0  0
   -0.2133    6.1733   -0.7232 C   0  0  0  0  0  0  0  0  0  0  0  0
   -1.4215   -0.0578   -1.6242 Cl  0  0  0  0  0  0  0  0  0  0  0  0
    6.4865   -0.6718   -2.9412 H   0  0  0  0  0  0  0  0  0  0  0  0
    6.0073   -1.9266   -1.7732 H   0  0  0  0  0  0  0  0  0  0  0  0
    4.7668   -1.0779   -2.7267 H   0  0  0  0  0  0  0  0  0  0  0  0
    6.7338    0.8613    0.4126 H   0  0  0  0  0  0  0  0  0  0  0  0
    7.1221   -0.8275    0.0060 H   0  0  0  0  0  0  0  0  0  0  0  0
    7.6667    0.4918   -1.0576 H   0  0  0  0  0  0  0  0  0  0  0  0
    4.3721    1.2241   -2.3858 H   0  0  0  0  0  0  0  0  0  0  0  0
    6.0714    1.7489   -2.3144 H   0  0  0  0  0  0  0  0  0  0  0  0
    3.3536    0.0806   -0.8454 H   0  0  0  0  0  0  0  0  0  0  0  0
    1.2526   -1.0280   -1.4667 H   0  0  0  0  0  0  0  0  0  0  0  0
   -0.8666    2.6239   -0.8913 H   0  0  0  0  0  0  0  0  0  0  0  0
    2.1497    3.4137    2.1581 H   0  0  0  0  0  0  0  0  0  0  0  0
    3.1203    4.9041    2.2908 H   0  0  0  0  0  0  0  0  0  0  0  0
    0.4360    3.5698   -2.7990 H   0  0  0  0  0  0  0  0  0  0  0  0
   -1.0357    4.8901   -4.2625 H   0  0  0  0  0  0  0  0  0  0  0  0
   -1.9689    7.0251   -3.4730 H   0  0  0  0  0  0  0  0  0  0  0  0
   -1.4461    7.8458   -1.2134 H   0  0  0  0  0  0  0  0  0  0  0  0
    0.0154    6.5348    0.2685 H   0  0  0  0  0  0  0  0  0  0  0  0
    5.5957    0.0391   -1.1513 N   0  3  0  0  0  0  0  0  0  0  0  0
    4.8522   -0.2517   -0.5057 H   0  0  0  0  0  0  0  0  0  0  0  0
  1 25  1  0  0  0  0
  1 26  1  0  0  0  0
  1 27  1  0  0  0  0
  1 43  1  0  0  0  0
  2 28  1  0  0  0  0
  2 29  1  0  0  0  0
  2 30  1  0  0  0  0
  2 43  1  0  0  0  0
  3  4  1  0  0  0  0
  3 31  1  0  0  0  0
  3 32  1  0  0  0  0
  3 43  1  0  0  0  0
  4  8  1  0  0  0  0
  4  5  2  0  0  0  0
  5  6  1  0  0  0  0
  6  7  2  0  0  0  0
  7 17  1  0  0  0  0
  7  8  1  0  0  0  0
  8  9  1  0  0  0  0
  9 14  2  0  0  0  0
  9 10  1  0  0  0  0
 10 11  2  0  0  0  0
 10 33  1  0  0  0  0
 11 12  1  0  0  0  0
 11 34  1  0  0  0  0
 12 13  2  0  0  0  0
 12 24  1  0  0  0  0
 13 14  1  0  0  0  0
 13 35  1  0  0  0  0
 14 15  1  0  0  0  0
 15 16  2  0  0  0  0
 15 18  1  0  0  0  0
 16 17  1  0  0  0  0
 17 36  1  0  0  0  0
 17 37  1  0  0  0  0
 18 23  2  0  0  0  0
 18 19  1  0  0  0  0
 19 20  2  0  0  0  0
 19 38  1  0  0  0  0
 20 21  1  0  0  0  0
 20 39  1  0  0  0  0
 21 22  2  0  0  0  0
 21 40  1  0  0  0  0
 22 23  1  0  0  0  0
 22 41  1  0  0  0  0
 23 42  1  0  0  0  0
 43 44  1  0  0  0  0
M  CHG  1  43   1
M  END
$$$$
