ZINC53682936
 OpenBabel08292219463D

 81 84  0  0  1  0  0  0  0  0999 V2000
   -0.8503    1.4589    0.1080 C   0  0  0  0  0  0  0  0  0  0  0  0
   -1.2911   -0.0062    0.1076 C   0  0  1  0  0  0  0  0  0  0  0  0
   -1.0758   -0.5916   -1.2631 C   0  0  0  0  0  0  0  0  0  0  0  0
   -1.0452    0.2310   -2.3694 C   0  0  0  0  0  0  0  0  0  0  0  0
   -0.8610   -0.3053   -3.6331 C   0  0  0  0  0  0  0  0  0  0  0  0
   -0.7085   -1.6679   -3.8002 C   0  0  0  0  0  0  0  0  0  0  0  0
   -0.7314   -2.5097   -2.6979 C   0  0  0  0  0  0  0  0  0  0  0  0
   -0.9101   -1.9685   -1.4188 C   0  0  0  0  0  0  0  0  0  0  0  0
   -0.9047   -2.8441   -0.2299 C   0  0  0  0  0  0  0  0  0  0  0  0
   -0.9961   -4.0526   -0.3499 O   0  0  0  0  0  0  0  0  0  0  0  0
   -0.7899   -2.2494    1.0619 C   0  0  0  0  0  0  0  0  0  0  0  0
   -0.9697   -3.0193    2.1389 C   0  0  0  0  0  0  0  0  0  0  0  0
   -0.8631   -2.5239    3.5560 C   0  0  1  0  0  0  0  0  0  0  0  0
   -0.1418   -1.1757    3.5641 C   0  0  1  0  0  0  0  0  0  0  0  0
    0.8901   -1.3420    3.2549 H   0  0  0  0  0  0  0  0  0  0  0  0
   -0.7983   -0.2482    2.5454 C   0  0  0  0  0  0  0  0  0  0  0  0
   -0.4793   -0.7790    1.1449 C   0  0  2  0  0  0  0  0  0  0  0  0
    0.5824   -0.6283    0.9496 H   0  0  0  0  0  0  0  0  0  0  0  0
   -0.1258   -0.5567    4.9481 C   0  0  1  0  0  0  0  0  0  0  0  0
    0.2407    0.4671    4.8732 H   0  0  0  0  0  0  0  0  0  0  0  0
   -1.4854   -0.5414    5.5797 C   0  0  0  0  0  0  0  0  0  0  0  0
   -2.4943   -1.3759    5.1675 C   0  0  0  0  0  0  0  0  0  0  0  0
   -2.2723   -2.3064    4.0743 C   0  0  0  0  0  0  0  0  0  0  0  0
   -3.2123   -2.8866    3.5712 O   0  0  0  0  0  0  0  0  0  0  0  0
   -3.8000   -1.3367    5.8451 C   0  0  0  0  0  0  0  0  0  0  0  0
   -3.9571   -0.6296    6.8222 O   0  0  0  0  0  0  0  0  0  0  0  0
   -4.8218   -2.0842    5.3829 N   0  0  0  0  0  0  0  0  0  0  0  0
   -6.1527   -1.9558    5.9815 C   0  0  0  0  0  0  0  0  0  0  0  0
   -6.9531   -1.0064    5.1967 N   0  3  0  0  0  0  0  0  0  0  0  0
   -8.2877   -0.8777    5.7970 C   0  0  0  0  0  0  0  0  0  0  0  0
   -9.1213    0.1111    4.9795 C   0  0  0  0  0  0  0  0  0  0  0  0
  -10.5113    0.2452    5.6047 C   0  0  0  0  0  0  0  0  0  0  0  0
  -11.3449    1.2340    4.7873 C   0  0  0  0  0  0  0  0  0  0  0  0
  -12.7349    1.3681    5.4125 C   0  0  1  0  0  0  0  0  0  0  0  0
  -12.6361    1.6464    6.4617 H   0  0  0  0  0  0  0  0  0  0  0  0
  -13.5138    2.4315    4.6820 C   0  0  0  0  0  0  0  0  0  0  0  0
  -14.4590    2.1195    3.9780 O   0  0  0  0  0  0  0  0  0  0  0  0
  -13.1987    3.6039    4.7951 O   0  0  0  0  0  1  0  0  0  0  0  0
  -13.4434    0.0853    5.3107 N   0  3  0  0  0  0  0  0  0  0  0  0
   -1.7240    0.3170    6.5823 O   0  5  0  0  0  0  0  0  0  0  0  0
    0.7863   -1.3272    5.8039 N   0  0  0  0  0  0  0  0  0  0  0  0
    2.1733   -1.2108    5.3341 C   0  0  0  0  0  0  0  0  0  0  0  0
    0.6692   -0.9103    7.2076 C   0  0  0  0  0  0  0  0  0  0  0  0
   -0.1731   -3.4762    4.3678 O   0  0  0  0  0  0  0  0  0  0  0  0
   -1.2651   -4.3200    1.9443 O   0  0  0  0  0  0  0  0  0  0  0  0
   -0.5825   -3.8487   -2.8581 O   0  0  0  0  0  0  0  0  0  0  0  0
   -2.6789   -0.0832    0.4394 O   0  0  0  0  0  0  0  0  0  0  0  0
    0.2094    1.5196   -0.1396 H   0  0  0  0  0  0  0  0  0  0  0  0
   -1.4286    2.0125   -0.6318 H   0  0  0  0  0  0  0  0  0  0  0  0
   -1.0179    1.8885    1.0957 H   0  0  0  0  0  0  0  0  0  0  0  0
   -1.1656    1.2976   -2.2500 H   0  0  0  0  0  0  0  0  0  0  0  0
   -0.8368    0.3465   -4.4939 H   0  0  0  0  0  0  0  0  0  0  0  0
   -0.5717   -2.0782   -4.7898 H   0  0  0  0  0  0  0  0  0  0  0  0
   -1.8775   -0.2382    2.6984 H   0  0  0  0  0  0  0  0  0  0  0  0
   -0.4008    0.7607    2.6562 H   0  0  0  0  0  0  0  0  0  0  0  0
   -4.6759   -2.7073    4.6539 H   0  0  0  0  0  0  0  0  0  0  0  0
   -6.6443   -2.9286    5.9863 H   0  0  0  0  0  0  0  0  0  0  0  0
   -6.0574   -1.5919    7.0046 H   0  0  0  0  0  0  0  0  0  0  0  0
   -6.4980   -0.1059    5.1923 H   0  0  0  0  0  0  0  0  0  0  0  0
   -8.7793   -1.8505    5.8017 H   0  0  0  0  0  0  0  0  0  0  0  0
   -8.1923   -0.5138    6.8200 H   0  0  0  0  0  0  0  0  0  0  0  0
   -8.6296    1.0839    4.9748 H   0  0  0  0  0  0  0  0  0  0  0  0
   -9.2166   -0.2528    3.9565 H   0  0  0  0  0  0  0  0  0  0  0  0
  -11.0029   -0.7276    5.6095 H   0  0  0  0  0  0  0  0  0  0  0  0
  -10.4160    0.6091    6.6278 H   0  0  0  0  0  0  0  0  0  0  0  0
  -10.8533    2.2068    4.7826 H   0  0  0  0  0  0  0  0  0  0  0  0
  -11.4403    0.8701    3.7643 H   0  0  0  0  0  0  0  0  0  0  0  0
  -14.3601    0.1738    5.7230 H   0  0  0  0  0  0  0  0  0  0  0  0
  -13.5350   -0.1723    4.3395 H   0  0  0  0  0  0  0  0  0  0  0  0
    2.5035   -0.1764    5.4293 H   0  0  0  0  0  0  0  0  0  0  0  0
    2.8158   -1.8540    5.9354 H   0  0  0  0  0  0  0  0  0  0  0  0
    2.2297   -1.5156    4.2891 H   0  0  0  0  0  0  0  0  0  0  0  0
   -0.3245   -1.1605    7.5792 H   0  0  0  0  0  0  0  0  0  0  0  0
    1.4209   -1.4273    7.8041 H   0  0  0  0  0  0  0  0  0  0  0  0
    0.8243    0.1661    7.2811 H   0  0  0  0  0  0  0  0  0  0  0  0
   -0.5599   -4.3623    4.3495 H   0  0  0  0  0  0  0  0  0  0  0  0
   -0.5837   -4.9295    2.2594 H   0  0  0  0  0  0  0  0  0  0  0  0
    0.3356   -4.1497   -2.8198 H   0  0  0  0  0  0  0  0  0  0  0  0
   -3.2569    0.3900   -0.1747 H   0  0  0  0  0  0  0  0  0  0  0  0
  -12.9219   -0.6267    5.7998 H   0  0  0  0  0  0  0  0  0  0  0  0
   -7.0413   -1.3433    4.2497 H   0  0  0  0  0  0  0  0  0  0  0  0
  1  2  1  0  0  0  0
  1 48  1  0  0  0  0
  1 49  1  0  0  0  0
  1 50  1  0  0  0  0
  2 17  1  0  0  0  0
  2  3  1  0  0  0  0
  2 47  1  1  0  0  0
  3  8  2  0  0  0  0
  3  4  1  0  0  0  0
  4  5  2  0  0  0  0
  4 51  1  0  0  0  0
  5  6  1  0  0  0  0
  5 52  1  0  0  0  0
  6  7  2  0  0  0  0
  6 53  1  0  0  0  0
  7  8  1  0  0  0  0
  7 46  1  0  0  0  0
  8  9  1  0  0  0  0
  9 10  2  0  0  0  0
  9 11  1  0  0  0  0
 11 17  1  0  0  0  0
 11 12  2  0  0  0  0
 12 13  1  0  0  0  0
 12 45  1  0  0  0  0
 13 23  1  0  0  0  0
 13 14  1  0  0  0  0
 13 44  1  1  0  0  0
 14 15  1  6  0  0  0
 14 16  1  0  0  0  0
 14 19  1  0  0  0  0
 16 17  1  0  0  0  0
 16 54  1  0  0  0  0
 16 55  1  0  0  0  0
 17 18  1  6  0  0  0
 19 20  1  6  0  0  0
 19 21  1  0  0  0  0
 19 41  1  0  0  0  0
 21 22  2  0  0  0  0
 21 40  1  0  0  0  0
 22 23  1  0  0  0  0
 22 25  1  0  0  0  0
 23 24  2  0  0  0  0
 25 26  2  0  0  0  0
 25 27  1  0  0  0  0
 27 28  1  0  0  0  0
 27 56  1  0  0  0  0
 28 29  1  0  0  0  0
 28 57  1  0  0  0  0
 28 58  1  0  0  0  0
 29 30  1  0  0  0  0
 29 59  1  0  0  0  0
 29 81  1  0  0  0  0
 30 31  1  0  0  0  0
 30 60  1  0  0  0  0
 30 61  1  0  0  0  0
 31 32  1  0  0  0  0
 31 62  1  0  0  0  0
 31 63  1  0  0  0  0
 32 33  1  0  0  0  0
 32 64  1  0  0  0  0
 32 65  1  0  0  0  0
 33 34  1  0  0  0  0
 33 66  1  0  0  0  0
 33 67  1  0  0  0  0
 34 35  1  1  0  0  0
 34 36  1  0  0  0  0
 34 39  1  0  0  0  0
 36 37  2  0  0  0  0
 36 38  1  0  0  0  0
 39 68  1  0  0  0  0
 39 69  1  0  0  0  0
 39 80  1  0  0  0  0
 41 42  1  0  0  0  0
 41 43  1  0  0  0  0
 42 70  1  0  0  0  0
 42 71  1  0  0  0  0
 42 72  1  0  0  0  0
 43 73  1  0  0  0  0
 43 74  1  0  0  0  0
 43 75  1  0  0  0  0
 44 76  1  0  0  0  0
 45 77  1  0  0  0  0
 46 78  1  0  0  0  0
 47 79  1  0  0  0  0
M  CHG  3  29   1  39   1  40  -1
M  END
$$$$
