ZINC00125031
 OpenBabel08292219463D

 28 29  0  0  0  0  0  0  0  0999 V2000
    0.0819    1.3906   -0.4202 C   0  0  0  0  0  0  0  0  0  0  0  0
    1.2142    2.0676   -0.0050 C   0  0  0  0  0  0  0  0  0  0  0  0
    2.3506    1.3661    0.3531 C   0  0  0  0  0  0  0  0  0  0  0  0
    2.3582   -0.0140    0.2977 C   0  0  0  0  0  0  0  0  0  0  0  0
    1.2228   -0.6970   -0.1184 C   0  0  0  0  0  0  0  0  0  0  0  0
    0.0828    0.0110   -0.4780 C   0  0  0  0  0  0  0  0  0  0  0  0
    1.2273   -2.0936   -0.1761 N   0  0  0  0  0  0  0  0  0  0  0  0
    0.0525   -2.7970    0.0133 C   0  0  0  0  0  0  0  0  0  0  0  0
    0.0924   -4.1927    0.1886 C   0  0  0  0  0  0  0  0  0  0  0  0
   -1.1122   -4.8827    0.3793 C   0  0  0  0  0  0  0  0  0  0  0  0
   -2.2901   -4.1582    0.3867 C   0  0  0  0  0  0  0  0  0  0  0  0
   -2.2483   -2.7863    0.2075 C   0  0  0  0  0  0  0  0  0  0  0  0
   -1.1047   -2.1535    0.0344 N   0  0  0  0  0  0  0  0  0  0  0  0
    1.3740   -4.9134    0.1714 C   0  0  0  0  0  0  0  0  0  0  0  0
    1.3877   -6.1369    0.1646 O   0  0  0  0  0  0  0  0  0  0  0  0
    2.4266   -4.2897    0.1639 O   0  0  0  0  0  1  0  0  0  0  0  0
    3.5823    2.1082    0.8040 C   0  0  0  0  0  0  0  0  0  0  0  0
    3.3337    3.4846    0.7767 F   0  0  0  0  0  0  0  0  0  0  0  0
    3.9101    1.7193    2.1073 F   0  0  0  0  0  0  0  0  0  0  0  0
    4.6466    1.8094   -0.0534 F   0  0  0  0  0  0  0  0  0  0  0  0
   -0.8055    1.9414   -0.6952 H   0  0  0  0  0  0  0  0  0  0  0  0
    1.2108    3.1467    0.0393 H   0  0  0  0  0  0  0  0  0  0  0  0
    3.2463   -0.5613    0.5772 H   0  0  0  0  0  0  0  0  0  0  0  0
   -0.8018   -0.5171   -0.8020 H   0  0  0  0  0  0  0  0  0  0  0  0
    2.0548   -2.5692   -0.3491 H   0  0  0  0  0  0  0  0  0  0  0  0
   -1.1206   -5.9539    0.5168 H   0  0  0  0  0  0  0  0  0  0  0  0
   -3.2359   -4.6592    0.5308 H   0  0  0  0  0  0  0  0  0  0  0  0
   -3.1698   -2.2231    0.2134 H   0  0  0  0  0  0  0  0  0  0  0  0
  1  6  2  0  0  0  0
  1  2  1  0  0  0  0
  1 21  1  0  0  0  0
  2  3  2  0  0  0  0
  2 22  1  0  0  0  0
  3  4  1  0  0  0  0
  3 17  1  0  0  0  0
  4  5  2  0  0  0  0
  4 23  1  0  0  0  0
  5  6  1  0  0  0  0
  5  7  1  0  0  0  0
  6 24  1  0  0  0  0
  7  8  1  0  0  0  0
  7 25  1  0  0  0  0
  8 13  2  0  0  0  0
  8  9  1  0  0  0  0
  9 10  2  0  0  0  0
  9 14  1  0  0  0  0
 10 11  1  0  0  0  0
 10 26  1  0  0  0  0
 11 12  2  0  0  0  0
 11 27  1  0  0  0  0
 12 13  1  0  0  0  0
 12 28  1  0  0  0  0
 14 15  2  0  0  0  0
 14 16  1  0  0  0  0
 17 18  1  0  0  0  0
 17 19  1  0  0  0  0
 17 20  1  0  0  0  0
M  END
$$$$
