ZINC03831042
 OpenBabel08292219463D

 53 56  0  0  1  0  0  0  0  0999 V2000
    2.7528    3.4866   -3.1898 C   0  0  0  0  0  0  0  0  0  0  0  0
    1.4574    5.5214   -2.9845 C   0  0  0  0  0  0  0  0  0  0  0  0
    0.0396    6.0694   -2.8075 C   0  0  0  0  0  0  0  0  0  0  0  0
   -0.5021    5.6386   -1.4416 C   0  0  0  0  0  0  0  0  0  0  0  0
   -0.4718    4.1106   -1.3484 C   0  0  0  0  0  0  0  0  0  0  0  0
    0.9610    3.6194   -1.5674 C   0  0  1  0  0  0  0  0  0  0  0  0
    1.6089    4.0332   -0.7948 H   0  0  0  0  0  0  0  0  0  0  0  0
    0.9927    2.0914   -1.4948 C   0  0  0  0  0  0  0  0  0  0  0  0
    0.5905    1.6392   -0.0896 C   0  0  0  0  0  0  0  0  0  0  0  0
    0.6783    0.1794   -0.0026 N   0  0  0  0  0  0  0  0  0  0  0  0
   -0.4514   -0.5546   -0.3542 C   0  0  0  0  0  0  0  0  0  0  0  0
   -1.3906    0.0249   -1.2014 C   0  0  0  0  0  0  0  0  0  0  0  0
   -2.5261   -0.6724   -1.5669 C   0  0  0  0  0  0  0  0  0  0  0  0
   -2.7375   -1.9539   -1.0944 C   0  0  0  0  0  0  0  0  0  0  0  0
   -1.8095   -2.5410   -0.2538 C   0  0  0  0  0  0  0  0  0  0  0  0
   -0.6670   -1.8464    0.1172 C   0  0  0  0  0  0  0  0  0  0  0  0
    0.5048   -2.6123    1.1865 S   0  0  0  0  0  0  0  0  0  0  0  0
    1.9585   -1.6367    0.9933 C   0  0  0  0  0  0  0  0  0  0  0  0
    1.8868   -0.3677    0.4201 C   0  0  0  0  0  0  0  0  0  0  0  0
    3.0488    0.3801    0.2807 C   0  0  0  0  0  0  0  0  0  0  0  0
    4.2635   -0.1296    0.6990 C   0  0  0  0  0  0  0  0  0  0  0  0
    4.3315   -1.3882    1.2649 C   0  0  0  0  0  0  0  0  0  0  0  0
    3.1807   -2.1416    1.4123 C   0  0  0  0  0  0  0  0  0  0  0  0
    5.7300    0.8284    0.5095 S   0  0  1  0  0  0  0  0  0  0  0  0
    6.6047    0.3191    1.5068 O   0  0  0  0  0  0  0  0  0  0  0  0
    6.3485    0.3642   -1.1314 C   0  0  0  0  0  0  0  0  0  0  0  0
    2.6937    2.3986   -3.1627 H   0  0  0  0  0  0  0  0  0  0  0  0
    3.0690    3.8087   -4.1820 H   0  0  0  0  0  0  0  0  0  0  0  0
    3.4750    3.8299   -2.4491 H   0  0  0  0  0  0  0  0  0  0  0  0
    2.1032    5.9262   -2.2052 H   0  0  0  0  0  0  0  0  0  0  0  0
    1.8407    5.8144   -3.9619 H   0  0  0  0  0  0  0  0  0  0  0  0
    0.0604    7.1578   -2.8639 H   0  0  0  0  0  0  0  0  0  0  0  0
   -0.6036    5.6759   -3.5946 H   0  0  0  0  0  0  0  0  0  0  0  0
    0.1183    6.0642   -0.6530 H   0  0  0  0  0  0  0  0  0  0  0  0
   -1.5274    5.9911   -1.3287 H   0  0  0  0  0  0  0  0  0  0  0  0
   -1.1228    3.6862   -2.1127 H   0  0  0  0  0  0  0  0  0  0  0  0
   -0.8164    3.7994   -0.3623 H   0  0  0  0  0  0  0  0  0  0  0  0
    1.9998    1.7380   -1.7159 H   0  0  0  0  0  0  0  0  0  0  0  0
    0.2947    1.6785   -2.2231 H   0  0  0  0  0  0  0  0  0  0  0  0
   -0.4328    1.9544    0.1146 H   0  0  0  0  0  0  0  0  0  0  0  0
    1.2619    2.0878    0.6426 H   0  0  0  0  0  0  0  0  0  0  0  0
   -1.2314    1.0256   -1.5752 H   0  0  0  0  0  0  0  0  0  0  0  0
   -3.2508   -0.2146   -2.2239 H   0  0  0  0  0  0  0  0  0  0  0  0
   -3.6266   -2.4960   -1.3809 H   0  0  0  0  0  0  0  0  0  0  0  0
   -1.9746   -3.5425    0.1150 H   0  0  0  0  0  0  0  0  0  0  0  0
    3.0031    1.3645   -0.1613 H   0  0  0  0  0  0  0  0  0  0  0  0
    5.2820   -1.7835    1.5915 H   0  0  0  0  0  0  0  0  0  0  0  0
    3.2340   -3.1256    1.8544 H   0  0  0  0  0  0  0  0  0  0  0  0
    5.5989    0.6074   -1.8844 H   0  0  0  0  0  0  0  0  0  0  0  0
    7.2665    0.9126   -1.3423 H   0  0  0  0  0  0  0  0  0  0  0  0
    6.5517   -0.7065   -1.1536 H   0  0  0  0  0  0  0  0  0  0  0  0
    1.4144    4.0457   -2.9085 N   0  3  2  0  0  0  0  0  0  0  0  0
    0.7524    3.6952   -3.6108 H   0  0  0  0  0  0  0  0  0  0  0  0
  1 27  1  0  0  0  0
  1 28  1  0  0  0  0
  1 29  1  0  0  0  0
  1 52  1  0  0  0  0
  2  3  1  0  0  0  0
  2 30  1  0  0  0  0
  2 31  1  0  0  0  0
  2 52  1  0  0  0  0
  3  4  1  0  0  0  0
  3 32  1  0  0  0  0
  3 33  1  0  0  0  0
  4  5  1  0  0  0  0
  4 34  1  0  0  0  0
  4 35  1  0  0  0  0
  5  6  1  0  0  0  0
  5 36  1  0  0  0  0
  5 37  1  0  0  0  0
  6  7  1  1  0  0  0
  6  8  1  0  0  0  0
  6 52  1  0  0  0  0
  8  9  1  0  0  0  0
  8 38  1  0  0  0  0
  8 39  1  0  0  0  0
  9 10  1  0  0  0  0
  9 40  1  0  0  0  0
  9 41  1  0  0  0  0
 10 19  1  0  0  0  0
 10 11  1  0  0  0  0
 11 16  2  0  0  0  0
 11 12  1  0  0  0  0
 12 13  2  0  0  0  0
 12 42  1  0  0  0  0
 13 14  1  0  0  0  0
 13 43  1  0  0  0  0
 14 15  2  0  0  0  0
 14 44  1  0  0  0  0
 15 16  1  0  0  0  0
 15 45  1  0  0  0  0
 16 17  1  0  0  0  0
 17 18  1  0  0  0  0
 18 23  2  0  0  0  0
 18 19  1  0  0  0  0
 19 20  2  0  0  0  0
 20 21  1  0  0  0  0
 20 46  1  0  0  0  0
 21 22  2  0  0  0  0
 21 24  1  0  0  0  0
 22 23  1  0  0  0  0
 22 47  1  0  0  0  0
 23 48  1  0  0  0  0
 24 25  2  1  0  0  0
 24 26  1  0  0  0  0
 26 49  1  0  0  0  0
 26 50  1  0  0  0  0
 26 51  1  0  0  0  0
 52 53  1  6  0  0  0
M  CHG  1  52   1
M  END
$$$$
