ZINC03779042
 OpenBabel08292219463D

 32 33  0  0  1  0  0  0  0  0999 V2000
   -0.0184    1.5028    0.0103 C   0  0  0  0  0  0  0  0  0  0  0  0
    0.0021   -0.0041    0.0020 C   0  0  0  0  0  0  0  0  0  0  0  0
   -1.1526   -0.7039    0.0037 C   0  0  0  0  0  0  0  0  0  0  0  0
   -1.1160   -2.0718   -0.0039 N   0  0  0  0  0  0  0  0  0  0  0  0
    0.0598   -2.7257   -0.0125 C   0  0  0  0  0  0  0  0  0  0  0  0
    0.0693   -3.9416   -0.0187 O   0  0  0  0  0  0  0  0  0  0  0  0
    1.2256   -2.0531   -0.0148 N   0  0  0  0  0  0  0  0  0  0  0  0
    2.0644   -2.5402   -0.0217 H   0  0  0  0  0  0  0  0  0  0  0  0
    1.2322   -0.7047   -0.0135 C   0  0  0  0  0  0  0  0  0  0  0  0
    2.2865   -0.0953   -0.0208 O   0  0  0  0  0  0  0  0  0  0  0  0
   -2.3687   -2.8312   -0.0021 C   0  0  1  0  0  0  0  0  0  0  0  0
   -3.2193   -2.1584    0.1071 H   0  0  0  0  0  0  0  0  0  0  0  0
   -2.4992   -3.6565   -1.3014 C   0  0  0  0  0  0  0  0  0  0  0  0
   -3.1605   -4.9757   -0.8435 C   0  0  1  0  0  0  0  0  0  0  0  0
   -2.5046   -5.8223   -1.0463 H   0  0  0  0  0  0  0  0  0  0  0  0
   -3.3514   -4.7913    0.6783 C   0  0  2  0  0  0  0  0  0  0  0  0
   -4.3537   -4.4206    0.8929 H   0  0  0  0  0  0  0  0  0  0  0  0
   -2.3620   -3.8096    1.0602 O   0  0  0  0  0  0  0  0  0  0  0  0
   -3.1055   -6.1124    1.4099 C   0  0  0  0  0  0  0  0  0  0  0  0
   -3.3996   -5.9498    2.7988 O   0  0  0  0  0  0  0  0  0  0  0  0
   -4.4535   -5.1591   -1.5074 N   0  0  0  0  0  0  0  0  0  0  0  0
   -4.4962   -5.3273   -2.6179 N   0  0  0  0  0  4  0  0  0  0  0  0
   -4.5380   -5.4918   -3.7047 N   0  0  0  0  0  2  0  0  0  0  0  0
    1.0042    1.8801    0.0026 H   0  0  0  0  0  0  0  0  0  0  0  0
   -0.5455    1.8639   -0.8728 H   0  0  0  0  0  0  0  0  0  0  0  0
   -0.5286    1.8543    0.9071 H   0  0  0  0  0  0  0  0  0  0  0  0
   -2.1006   -0.1866    0.0113 H   0  0  0  0  0  0  0  0  0  0  0  0
   -3.1353   -3.1397   -2.0199 H   0  0  0  0  0  0  0  0  0  0  0  0
   -1.5163   -3.8510   -1.7306 H   0  0  0  0  0  0  0  0  0  0  0  0
   -3.7492   -6.8855    0.9903 H   0  0  0  0  0  0  0  0  0  0  0  0
   -2.0621   -6.4046    1.2913 H   0  0  0  0  0  0  0  0  0  0  0  0
   -3.2657   -6.7496    3.3255 H   0  0  0  0  0  0  0  0  0  0  0  0
  1  2  1  0  0  0  0
  1 24  1  0  0  0  0
  1 25  1  0  0  0  0
  1 26  1  0  0  0  0
  2  9  1  0  0  0  0
  2  3  2  0  0  0  0
  3  4  1  0  0  0  0
  3 27  1  0  0  0  0
  4  5  1  0  0  0  0
  4 11  1  0  0  0  0
  5  6  2  0  0  0  0
  5  7  1  0  0  0  0
  7  8  1  0  0  0  0
  7  9  1  0  0  0  0
  9 10  2  0  0  0  0
 11 12  1  1  0  0  0
 11 18  1  0  0  0  0
 11 13  1  0  0  0  0
 13 14  1  0  0  0  0
 13 28  1  0  0  0  0
 13 29  1  0  0  0  0
 14 15  1  6  0  0  0
 14 16  1  0  0  0  0
 14 21  1  0  0  0  0
 16 17  1  1  0  0  0
 16 18  1  0  0  0  0
 16 19  1  0  0  0  0
 19 20  1  0  0  0  0
 19 30  1  0  0  0  0
 19 31  1  0  0  0  0
 20 32  1  0  0  0  0
 21 22  2  0  0  0  0
 22 23  2  0  0  0  0
M  END
$$$$
