ZINC02522669
 OpenBabel08292219463D

 54 56  0  0  1  0  0  0  0  0999 V2000
   -4.1700   -4.6057   -0.1771 C   0  0  0  0  0  0  0  0  0  0  0  0
   -2.7436   -4.0614   -0.0761 C   0  0  0  0  0  0  0  0  0  0  0  0
   -2.7798   -2.5548   -0.0739 C   0  0  0  0  0  0  0  0  0  0  0  0
   -3.8315   -1.9732   -0.2372 O   0  0  0  0  0  0  0  0  0  0  0  0
   -1.6434   -1.8538    0.1095 N   0  0  0  0  0  0  0  0  0  0  0  0
   -1.6940   -0.4619    0.2437 C   0  0  0  0  0  0  0  0  0  0  0  0
   -0.5193    0.2786    0.2615 C   0  0  0  0  0  0  0  0  0  0  0  0
   -0.5727    1.6523    0.3941 C   0  0  0  0  0  0  0  0  0  0  0  0
   -1.7941    2.2904    0.5092 C   0  0  0  0  0  0  0  0  0  0  0  0
   -2.9656    1.5559    0.4923 C   0  0  0  0  0  0  0  0  0  0  0  0
   -2.9193    0.1825    0.3537 C   0  0  0  0  0  0  0  0  0  0  0  0
   -0.3552   -2.5490    0.1684 C   0  0  2  0  0  0  0  0  0  0  0  0
    0.3795   -2.1577    1.4538 C   0  0  0  0  0  0  0  0  0  0  0  0
    1.7567   -2.8246    1.4708 C   0  0  0  0  0  0  0  0  0  0  0  0
    2.5335   -2.3811    0.3071 N   0  3  2  0  0  0  0  0  0  0  0  0
    1.8713   -2.8155   -0.9288 C   0  0  0  0  0  0  0  0  0  0  0  0
    0.4986   -2.1483   -1.0381 C   0  0  0  0  0  0  0  0  0  0  0  0
    3.8811   -2.9625    0.3692 C   0  0  0  0  0  0  0  0  0  0  0  0
    4.7309   -2.4036   -0.7737 C   0  0  0  0  0  0  0  0  0  0  0  0
    6.1134   -3.0001   -0.7099 C   0  0  0  0  0  0  0  0  0  0  0  0
    7.1017   -2.3767    0.0286 C   0  0  0  0  0  0  0  0  0  0  0  0
    8.3698   -2.9239    0.0871 C   0  0  0  0  0  0  0  0  0  0  0  0
    8.6494   -4.0947   -0.5925 C   0  0  0  0  0  0  0  0  0  0  0  0
    7.6608   -4.7186   -1.3303 C   0  0  0  0  0  0  0  0  0  0  0  0
    6.3916   -4.1737   -1.3853 C   0  0  0  0  0  0  0  0  0  0  0  0
   -4.1438   -5.6953   -0.1787 H   0  0  0  0  0  0  0  0  0  0  0  0
   -4.7529   -4.2575    0.6756 H   0  0  0  0  0  0  0  0  0  0  0  0
   -4.6293   -4.2519   -1.1001 H   0  0  0  0  0  0  0  0  0  0  0  0
   -2.2842   -4.4152    0.8469 H   0  0  0  0  0  0  0  0  0  0  0  0
   -2.1606   -4.4096   -0.9288 H   0  0  0  0  0  0  0  0  0  0  0  0
    0.4349   -0.2192    0.1721 H   0  0  0  0  0  0  0  0  0  0  0  0
    0.3405    2.2288    0.4084 H   0  0  0  0  0  0  0  0  0  0  0  0
   -1.8331    3.3647    0.6128 H   0  0  0  0  0  0  0  0  0  0  0  0
   -3.9179    2.0571    0.5827 H   0  0  0  0  0  0  0  0  0  0  0  0
   -3.8348   -0.3902    0.3354 H   0  0  0  0  0  0  0  0  0  0  0  0
   -0.5215   -3.6262    0.1557 H   0  0  0  0  0  0  0  0  0  0  0  0
    0.4990   -1.0749    1.4896 H   0  0  0  0  0  0  0  0  0  0  0  0
   -0.1963   -2.4897    2.3177 H   0  0  0  0  0  0  0  0  0  0  0  0
    2.2824   -2.5483    2.3848 H   0  0  0  0  0  0  0  0  0  0  0  0
    1.6360   -3.9073    1.4353 H   0  0  0  0  0  0  0  0  0  0  0  0
    2.4817   -2.5325   -1.7863 H   0  0  0  0  0  0  0  0  0  0  0  0
    1.7482   -3.8984   -0.9131 H   0  0  0  0  0  0  0  0  0  0  0  0
    0.0078   -2.4735   -1.9554 H   0  0  0  0  0  0  0  0  0  0  0  0
    0.6206   -1.0652   -1.0541 H   0  0  0  0  0  0  0  0  0  0  0  0
    4.3428   -2.7082    1.3233 H   0  0  0  0  0  0  0  0  0  0  0  0
    3.8138   -4.0464    0.2756 H   0  0  0  0  0  0  0  0  0  0  0  0
    4.2691   -2.6579   -1.7278 H   0  0  0  0  0  0  0  0  0  0  0  0
    4.7982   -1.3197   -0.6800 H   0  0  0  0  0  0  0  0  0  0  0  0
    6.8832   -1.4620    0.5596 H   0  0  0  0  0  0  0  0  0  0  0  0
    9.1422   -2.4364    0.6635 H   0  0  0  0  0  0  0  0  0  0  0  0
    9.6404   -4.5218   -0.5474 H   0  0  0  0  0  0  0  0  0  0  0  0
    7.8794   -5.6331   -1.8616 H   0  0  0  0  0  0  0  0  0  0  0  0
    5.6182   -4.6631   -1.9587 H   0  0  0  0  0  0  0  0  0  0  0  0
    2.6030   -1.3745    0.3142 H   0  0  0  0  0  0  0  0  0  0  0  0
  1  2  1  0  0  0  0
  1 26  1  0  0  0  0
  1 27  1  0  0  0  0
  1 28  1  0  0  0  0
  2  3  1  0  0  0  0
  2 29  1  0  0  0  0
  2 30  1  0  0  0  0
  3  4  2  0  0  0  0
  3  5  1  0  0  0  0
  5  6  1  0  0  0  0
  5 12  1  0  0  0  0
  6 11  2  0  0  0  0
  6  7  1  0  0  0  0
  7  8  2  0  0  0  0
  7 31  1  0  0  0  0
  8  9  1  0  0  0  0
  8 32  1  0  0  0  0
  9 10  2  0  0  0  0
  9 33  1  0  0  0  0
 10 11  1  0  0  0  0
 10 34  1  0  0  0  0
 11 35  1  0  0  0  0
 12 17  1  0  0  0  0
 12 13  1  0  0  0  0
 12 36  1  6  0  0  0
 13 14  1  0  0  0  0
 13 37  1  0  0  0  0
 13 38  1  0  0  0  0
 14 15  1  0  0  0  0
 14 39  1  0  0  0  0
 14 40  1  0  0  0  0
 15 16  1  0  0  0  0
 15 18  1  0  0  0  0
 15 54  1  1  0  0  0
 16 17  1  0  0  0  0
 16 41  1  0  0  0  0
 16 42  1  0  0  0  0
 17 43  1  0  0  0  0
 17 44  1  0  0  0  0
 18 19  1  0  0  0  0
 18 45  1  0  0  0  0
 18 46  1  0  0  0  0
 19 20  1  0  0  0  0
 19 47  1  0  0  0  0
 19 48  1  0  0  0  0
 20 25  2  0  0  0  0
 20 21  1  0  0  0  0
 21 22  2  0  0  0  0
 21 49  1  0  0  0  0
 22 23  1  0  0  0  0
 22 50  1  0  0  0  0
 23 24  2  0  0  0  0
 23 51  1  0  0  0  0
 24 25  1  0  0  0  0
 24 52  1  0  0  0  0
 25 53  1  0  0  0  0
M  CHG  1  15   1
M  END
$$$$
