ZINC19363537
 OpenBabel08292219463D

 39 38  0  0  0  0  0  0  0  0999 V2000
   -0.0187    1.5258    0.0104 C   0  0  0  0  0  0  0  0  0  0  0  0
    0.0021   -0.0041    0.0020 C   0  0  0  0  0  0  0  0  0  0  0  0
   -1.3761   -0.5125    0.0124 N   0  0  0  0  0  0  0  0  0  0  0  0
   -1.3954   -1.9814    0.0047 C   0  0  0  0  0  0  0  0  0  0  0  0
   -2.8444   -2.4725    0.0159 C   0  0  0  0  0  0  0  0  0  0  0  0
   -2.8636   -3.9413    0.0082 N   0  3  0  0  0  0  0  0  0  0  0  0
   -4.2549   -4.4129    0.0190 C   0  0  0  0  0  0  0  0  0  0  0  0
   -4.2749   -5.9427    0.0110 C   0  0  0  0  0  0  0  0  0  0  0  0
   -5.6662   -6.4142    0.0217 N   0  0  0  0  0  0  0  0  0  0  0  0
   -5.7246   -7.8820    0.0144 C   0  0  0  0  0  0  0  0  0  0  0  0
   -7.1862   -8.3343    0.0259 C   0  0  0  0  0  0  0  0  0  0  0  0
   -7.2446   -9.8021    0.0186 N   0  3  0  0  0  0  0  0  0  0  0  0
    1.3595    2.0342    0.0000 N   0  3  0  0  0  0  0  0  0  0  0  0
   -0.5459    1.8868   -0.8726 H   0  0  0  0  0  0  0  0  0  0  0  0
   -0.5289    1.8773    0.9072 H   0  0  0  0  0  0  0  0  0  0  0  0
    0.5123   -0.3556   -0.8948 H   0  0  0  0  0  0  0  0  0  0  0  0
    0.5293   -0.3651    0.8851 H   0  0  0  0  0  0  0  0  0  0  0  0
   -1.8899   -0.1483    0.8007 H   0  0  0  0  0  0  0  0  0  0  0  0
   -0.8949   -2.3466   -0.8920 H   0  0  0  0  0  0  0  0  0  0  0  0
   -0.8779   -2.3562    0.8878 H   0  0  0  0  0  0  0  0  0  0  0  0
   -3.3449   -2.1073    0.9127 H   0  0  0  0  0  0  0  0  0  0  0  0
   -3.3618   -2.0977   -0.8671 H   0  0  0  0  0  0  0  0  0  0  0  0
   -2.4003   -4.2794   -0.8219 H   0  0  0  0  0  0  0  0  0  0  0  0
   -4.7554   -4.0476    0.9158 H   0  0  0  0  0  0  0  0  0  0  0  0
   -4.7723   -4.0381   -0.8641 H   0  0  0  0  0  0  0  0  0  0  0  0
   -3.7744   -6.3079   -0.8858 H   0  0  0  0  0  0  0  0  0  0  0  0
   -3.7574   -6.3175    0.8940 H   0  0  0  0  0  0  0  0  0  0  0  0
   -6.1700   -6.0362    0.8100 H   0  0  0  0  0  0  0  0  0  0  0  0
   -5.2342   -8.2607   -0.8824 H   0  0  0  0  0  0  0  0  0  0  0  0
   -5.2172   -8.2703    0.8975 H   0  0  0  0  0  0  0  0  0  0  0  0
   -7.6766   -7.9556    0.9227 H   0  0  0  0  0  0  0  0  0  0  0  0
   -7.6936   -7.9461   -0.8572 H   0  0  0  0  0  0  0  0  0  0  0  0
   -6.7906  -10.1527   -0.8115 H   0  0  0  0  0  0  0  0  0  0  0  0
   -6.7749  -10.1615    0.8361 H   0  0  0  0  0  0  0  0  0  0  0  0
    1.8475    1.7000    0.8174 H   0  0  0  0  0  0  0  0  0  0  0  0
    1.8318    1.7088   -0.8301 H   0  0  0  0  0  0  0  0  0  0  0  0
   -8.2085  -10.1004    0.0262 H   0  0  0  0  0  0  0  0  0  0  0  0
    1.3458    3.0431    0.0055 H   0  0  0  0  0  0  0  0  0  0  0  0
   -2.3846   -4.2883    0.8257 H   0  0  0  0  0  0  0  0  0  0  0  0
  1  2  1  0  0  0  0
  1 13  1  0  0  0  0
  1 14  1  0  0  0  0
  1 15  1  0  0  0  0
  2  3  1  0  0  0  0
  2 16  1  0  0  0  0
  2 17  1  0  0  0  0
  3  4  1  0  0  0  0
  3 18  1  0  0  0  0
  4  5  1  0  0  0  0
  4 19  1  0  0  0  0
  4 20  1  0  0  0  0
  5  6  1  0  0  0  0
  5 21  1  0  0  0  0
  5 22  1  0  0  0  0
  6  7  1  0  0  0  0
  6 23  1  0  0  0  0
  6 39  1  0  0  0  0
  7  8  1  0  0  0  0
  7 24  1  0  0  0  0
  7 25  1  0  0  0  0
  8  9  1  0  0  0  0
  8 26  1  0  0  0  0
  8 27  1  0  0  0  0
  9 10  1  0  0  0  0
  9 28  1  0  0  0  0
 10 11  1  0  0  0  0
 10 29  1  0  0  0  0
 10 30  1  0  0  0  0
 11 12  1  0  0  0  0
 11 31  1  0  0  0  0
 11 32  1  0  0  0  0
 12 33  1  0  0  0  0
 12 34  1  0  0  0  0
 12 37  1  0  0  0  0
 13 35  1  0  0  0  0
 13 36  1  0  0  0  0
 13 38  1  0  0  0  0
M  CHG  3   6   1  12   1  13   1
M  END
$$$$
