ZINC00015515
 OpenBabel08292219463D

 43 45  0  0  1  0  0  0  0  0999 V2000
   -0.0178    1.4648    0.0101 C   0  0  0  0  0  0  0  0  0  0  0  0
    0.0021   -0.0041    0.0020 N   0  3  0  0  0  0  0  0  0  0  0  0
    0.7126   -0.4907    1.1921 C   0  0  0  0  0  0  0  0  0  0  0  0
   -1.3761   -0.5125    0.0124 C   0  0  0  0  0  0  0  0  0  0  0  0
   -1.3584   -2.0365   -0.1216 C   0  0  0  0  0  0  0  0  0  0  0  0
   -2.7722   -2.5582   -0.1109 C   0  0  0  0  0  0  0  0  0  0  0  0
   -3.4483   -3.0106    0.9568 C   0  0  0  0  0  0  0  0  0  0  0  0
   -4.7052   -3.4010    0.5822 N   0  0  0  0  0  0  0  0  0  0  0  0
   -5.3778   -3.7624    1.1803 H   0  0  0  0  0  0  0  0  0  0  0  0
   -4.8728   -3.2042   -0.7702 C   0  0  0  0  0  0  0  0  0  0  0  0
   -3.6716   -2.6617   -1.2627 C   0  0  0  0  0  0  0  0  0  0  0  0
   -3.5517   -2.3510   -2.6183 C   0  0  0  0  0  0  0  0  0  0  0  0
   -4.6048   -2.5723   -3.4607 C   0  0  0  0  0  0  0  0  0  0  0  0
   -5.7932   -3.1034   -2.9792 C   0  0  0  0  0  0  0  0  0  0  0  0
   -5.9299   -3.4260   -1.6465 C   0  0  0  0  0  0  0  0  0  0  0  0
   -4.4748   -2.2367   -4.9240 C   0  0  0  0  0  0  0  0  0  0  0  0
   -3.9414   -3.4545   -5.6812 C   0  0  1  0  0  0  0  0  0  0  0  0
   -4.5631   -4.3296   -5.4923 H   0  0  0  0  0  0  0  0  0  0  0  0
   -3.8474   -3.1625   -7.1977 C   0  0  0  0  0  0  0  0  0  0  0  0
   -2.6339   -3.8494   -7.5609 O   0  0  0  0  0  0  0  0  0  0  0  0
   -1.8515   -3.9154   -6.4706 C   0  0  0  0  0  0  0  0  0  0  0  0
   -0.6563   -4.1299   -6.5129 O   0  0  0  0  0  0  0  0  0  0  0  0
   -2.5346   -3.7218   -5.3222 N   0  0  0  0  0  0  0  0  0  0  0  0
    1.0047    1.8421    0.0024 H   0  0  0  0  0  0  0  0  0  0  0  0
   -0.5450    1.8259   -0.8730 H   0  0  0  0  0  0  0  0  0  0  0  0
   -0.5280    1.8163    0.9069 H   0  0  0  0  0  0  0  0  0  0  0  0
    0.2024   -0.1392    2.0889 H   0  0  0  0  0  0  0  0  0  0  0  0
    0.7273   -1.5806    1.1861 H   0  0  0  0  0  0  0  0  0  0  0  0
    1.7352   -0.1134    1.1844 H   0  0  0  0  0  0  0  0  0  0  0  0
   -1.8584   -0.2358    0.9500 H   0  0  0  0  0  0  0  0  0  0  0  0
   -1.9290   -0.0808   -0.8218 H   0  0  0  0  0  0  0  0  0  0  0  0
   -0.8762   -2.3132   -1.0592 H   0  0  0  0  0  0  0  0  0  0  0  0
   -0.8055   -2.4683    0.7126 H   0  0  0  0  0  0  0  0  0  0  0  0
   -3.0579   -3.0597    1.9626 H   0  0  0  0  0  0  0  0  0  0  0  0
   -2.6302   -1.9368   -2.9999 H   0  0  0  0  0  0  0  0  0  0  0  0
   -6.6168   -3.2720   -3.6571 H   0  0  0  0  0  0  0  0  0  0  0  0
   -6.8592   -3.8377   -1.2812 H   0  0  0  0  0  0  0  0  0  0  0  0
   -5.4514   -1.9607   -5.3217 H   0  0  0  0  0  0  0  0  0  0  0  0
   -3.7841   -1.4022   -5.0454 H   0  0  0  0  0  0  0  0  0  0  0  0
   -4.7039   -3.5787   -7.7280 H   0  0  0  0  0  0  0  0  0  0  0  0
   -3.7591   -2.0920   -7.3832 H   0  0  0  0  0  0  0  0  0  0  0  0
   -2.1690   -3.7504   -4.4242 H   0  0  0  0  0  0  0  0  0  0  0  0
    0.4744   -0.3295   -0.8281 H   0  0  0  0  0  0  0  0  0  0  0  0
  1  2  1  0  0  0  0
  1 24  1  0  0  0  0
  1 25  1  0  0  0  0
  1 26  1  0  0  0  0
  2  3  1  0  0  0  0
  2  4  1  0  0  0  0
  2 43  1  0  0  0  0
  3 27  1  0  0  0  0
  3 28  1  0  0  0  0
  3 29  1  0  0  0  0
  4  5  1  0  0  0  0
  4 30  1  0  0  0  0
  4 31  1  0  0  0  0
  5  6  1  0  0  0  0
  5 32  1  0  0  0  0
  5 33  1  0  0  0  0
  6 11  1  0  0  0  0
  6  7  2  0  0  0  0
  7  8  1  0  0  0  0
  7 34  1  0  0  0  0
  8  9  1  0  0  0  0
  8 10  1  0  0  0  0
 10 15  2  0  0  0  0
 10 11  1  0  0  0  0
 11 12  2  0  0  0  0
 12 13  1  0  0  0  0
 12 35  1  0  0  0  0
 13 14  2  0  0  0  0
 13 16  1  0  0  0  0
 14 15  1  0  0  0  0
 14 36  1  0  0  0  0
 15 37  1  0  0  0  0
 16 17  1  0  0  0  0
 16 38  1  0  0  0  0
 16 39  1  0  0  0  0
 17 18  1  1  0  0  0
 17 23  1  0  0  0  0
 17 19  1  0  0  0  0
 19 20  1  0  0  0  0
 19 40  1  0  0  0  0
 19 41  1  0  0  0  0
 20 21  1  0  0  0  0
 21 22  2  0  0  0  0
 21 23  1  0  0  0  0
 23 42  1  0  0  0  0
M  CHG  1   2   1
M  END
$$$$
