ZINC01530654
 OpenBabel08292219463D

 51 52  0  0  1  0  0  0  0  0999 V2000
   -0.3899   -2.4300   -1.1424 C   0  0  0  0  0  0  0  0  0  0  0  0
   -1.2212   -1.9711    0.0573 C   0  0  0  0  0  0  0  0  0  0  0  0
   -1.2742   -0.5033    0.0837 N   0  3  1  0  0  0  0  0  0  0  0  0
   -2.0113   -0.0187   -1.0910 C   0  0  0  0  0  0  0  0  0  0  0  0
   -1.9428    1.5089   -1.1415 C   0  0  0  0  0  0  0  0  0  0  0  0
   -2.5918    2.0060   -2.4349 C   0  0  0  0  0  0  0  0  0  0  0  0
   -2.5234    3.5336   -2.4854 C   0  0  2  0  0  0  0  0  0  0  0  0
   -2.9766    3.9476   -1.5847 H   0  0  0  0  0  0  0  0  0  0  0  0
   -3.2809    4.0376   -3.7154 C   0  0  0  0  0  0  0  0  0  0  0  0
   -1.1233    3.9573   -2.5666 N   0  0  0  0  0  0  0  0  0  0  0  0
   -0.7522    5.2146   -2.1152 C   0  0  0  0  0  0  0  0  0  0  0  0
   -1.6869    6.0861   -1.5778 C   0  0  0  0  0  0  0  0  0  0  0  0
   -1.2844    7.3379   -1.1341 C   0  0  0  0  0  0  0  0  0  0  0  0
   -0.0334    7.7296   -1.2068 N   0  0  0  0  0  0  0  0  0  0  0  0
    0.9213    6.9413   -1.7139 C   0  0  0  0  0  3  0  0  0  0  0  0
    0.5936    5.6466   -2.1830 C   0  0  0  0  0  0  0  0  0  0  0  0
    1.5988    4.8226   -2.7083 C   0  0  0  0  0  0  0  0  0  0  0  0
    2.8830    5.2741   -2.7573 C   0  0  0  0  0  0  0  0  0  0  0  0
    3.2109    6.5461   -2.2908 C   0  0  0  0  0  0  0  0  0  0  0  0
    2.2557    7.3761   -1.7855 C   0  0  0  0  0  0  0  0  0  0  0  0
    4.8588    7.0866   -2.3685 Cl  0  0  0  0  0  0  0  0  0  0  0  0
   -1.9561   -0.0599    1.3069 C   0  0  0  0  0  0  0  0  0  0  0  0
   -1.1235   -0.4568    2.5275 C   0  0  0  0  0  0  0  0  0  0  0  0
    0.1174    0.2516    2.5085 O   0  0  0  0  0  0  0  0  0  0  0  0
   -0.2676   -3.5125   -1.1070 H   0  0  0  0  0  0  0  0  0  0  0  0
   -0.8991   -2.1519   -2.0651 H   0  0  0  0  0  0  0  0  0  0  0  0
    0.5894   -1.9525   -1.1097 H   0  0  0  0  0  0  0  0  0  0  0  0
   -2.2322   -2.3697   -0.0275 H   0  0  0  0  0  0  0  0  0  0  0  0
   -0.7633   -2.3348    0.9771 H   0  0  0  0  0  0  0  0  0  0  0  0
   -1.5657   -0.4325   -1.9956 H   0  0  0  0  0  0  0  0  0  0  0  0
   -3.0525   -0.3337   -1.0220 H   0  0  0  0  0  0  0  0  0  0  0  0
   -2.4739    1.9249   -0.2854 H   0  0  0  0  0  0  0  0  0  0  0  0
   -0.9007    1.8271   -1.1123 H   0  0  0  0  0  0  0  0  0  0  0  0
   -2.0608    1.5899   -3.2910 H   0  0  0  0  0  0  0  0  0  0  0  0
   -3.6339    1.6878   -2.4641 H   0  0  0  0  0  0  0  0  0  0  0  0
   -2.8276    3.6236   -4.6162 H   0  0  0  0  0  0  0  0  0  0  0  0
   -4.3226    3.7224   -3.6550 H   0  0  0  0  0  0  0  0  0  0  0  0
   -3.2321    5.1259   -3.7515 H   0  0  0  0  0  0  0  0  0  0  0  0
   -0.4559    3.3582   -2.9361 H   0  0  0  0  0  0  0  0  0  0  0  0
   -2.7237    5.7923   -1.5052 H   0  0  0  0  0  0  0  0  0  0  0  0
   -2.0211    8.0088   -0.7176 H   0  0  0  0  0  0  0  0  0  0  0  0
    1.3563    3.8350   -3.0719 H   0  0  0  0  0  0  0  0  0  0  0  0
    3.6568    4.6386   -3.1622 H   0  0  0  0  0  0  0  0  0  0  0  0
    2.5254    8.3591   -1.4287 H   0  0  0  0  0  0  0  0  0  0  0  0
   -2.0745    1.0235    1.2845 H   0  0  0  0  0  0  0  0  0  0  0  0
   -2.9371   -0.5313    1.3673 H   0  0  0  0  0  0  0  0  0  0  0  0
   -1.6702   -0.2076    3.4370 H   0  0  0  0  0  0  0  0  0  0  0  0
   -0.9300   -1.5292    2.5022 H   0  0  0  0  0  0  0  0  0  0  0  0
    0.6977    0.0486    3.2549 H   0  0  0  0  0  0  0  0  0  0  0  0
   -0.3359   -0.1326    0.0685 H   0  0  0  0  0  0  0  0  0  0  0  0
    0.2047    8.6131   -0.8849 H   0  0  0  0  0  0  0  0  0  0  0  0
  1  2  1  0  0  0  0
  1 25  1  0  0  0  0
  1 26  1  0  0  0  0
  1 27  1  0  0  0  0
  2  3  1  0  0  0  0
  2 28  1  0  0  0  0
  2 29  1  0  0  0  0
  3  4  1  0  0  0  0
  3 22  1  0  0  0  0
  3 50  1  6  0  0  0
  4  5  1  0  0  0  0
  4 30  1  0  0  0  0
  4 31  1  0  0  0  0
  5  6  1  0  0  0  0
  5 32  1  0  0  0  0
  5 33  1  0  0  0  0
  6  7  1  0  0  0  0
  6 34  1  0  0  0  0
  6 35  1  0  0  0  0
  7  8  1  1  0  0  0
  7  9  1  0  0  0  0
  7 10  1  0  0  0  0
  9 36  1  0  0  0  0
  9 37  1  0  0  0  0
  9 38  1  0  0  0  0
 10 11  1  0  0  0  0
 10 39  1  0  0  0  0
 11 16  2  0  0  0  0
 11 12  1  0  0  0  0
 12 13  2  0  0  0  0
 12 40  1  0  0  0  0
 13 14  1  0  0  0  0
 13 41  1  0  0  0  0
 14 15  1  0  0  0  0
 14 51  1  0  0  0  0
 15 20  1  0  0  0  0
 15 16  1  0  0  0  0
 16 17  1  0  0  0  0
 17 18  2  0  0  0  0
 17 42  1  0  0  0  0
 18 19  1  0  0  0  0
 18 43  1  0  0  0  0
 19 20  2  0  0  0  0
 19 21  1  0  0  0  0
 20 44  1  0  0  0  0
 22 23  1  0  0  0  0
 22 45  1  0  0  0  0
 22 46  1  0  0  0  0
 23 24  1  0  0  0  0
 23 47  1  0  0  0  0
 23 48  1  0  0  0  0
 24 49  1  0  0  0  0
M  CHG  1   3   1
M  END
$$$$
