ZINC01530776
 OpenBabel08292219463D

 38 39  0  0  0  0  0  0  0  0999 V2000
   -0.0184    1.5028    0.0103 C   0  0  0  0  0  0  0  0  0  0  0  0
    0.0021   -0.0041    0.0020 C   0  0  0  0  0  0  0  0  0  0  0  0
    0.0202   -0.6134    1.0444 O   0  0  0  0  0  0  0  0  0  0  0  0
   -0.0002   -0.7505   -1.3071 C   0  0  0  0  0  0  0  0  0  0  0  0
    0.0229   -2.2561   -1.0359 C   0  0  0  0  0  0  0  0  0  0  0  0
    0.0206   -3.0139   -2.3650 C   0  0  0  0  0  0  0  0  0  0  0  0
    0.0437   -4.5194   -2.0937 C   0  0  0  0  0  0  0  0  0  0  0  0
    0.0415   -5.2450   -3.3664 N   0  0  0  0  0  0  0  0  0  0  0  0
   -1.1337   -5.5854   -3.9353 C   0  0  0  0  0  0  0  0  0  0  0  0
   -2.1864   -5.2924   -3.3972 O   0  0  0  0  0  0  0  0  0  0  0  0
   -1.1290   -6.2844   -5.1616 C   0  0  0  0  0  0  0  0  0  0  0  0
    0.0864   -6.6052   -5.7531 C   0  0  0  0  0  0  0  0  0  0  0  0
   -0.1849   -7.2556   -6.8875 N   0  0  0  0  0  0  0  0  0  0  0  0
   -1.4805   -7.3600   -7.0398 C   0  0  0  0  0  0  0  0  0  0  0  0
   -2.1087   -6.7761   -6.0007 N   0  0  0  0  0  0  0  0  0  0  0  0
   -3.5567   -6.6819   -5.7990 C   0  0  0  0  0  0  0  0  0  0  0  0
    1.2590   -6.2277   -5.1190 N   0  0  0  0  0  0  0  0  0  0  0  0
    1.2102   -5.5570   -3.9526 C   0  0  0  0  0  0  0  0  0  0  0  0
    2.2497   -5.2297   -3.4131 O   0  0  0  0  0  0  0  0  0  0  0  0
    2.5540   -6.5541   -5.7213 C   0  0  0  0  0  0  0  0  0  0  0  0
    1.0042    1.8801    0.0026 H   0  0  0  0  0  0  0  0  0  0  0  0
   -0.5455    1.8639   -0.8728 H   0  0  0  0  0  0  0  0  0  0  0  0
   -0.5286    1.8543    0.9071 H   0  0  0  0  0  0  0  0  0  0  0  0
   -0.8991   -0.4962   -1.8688 H   0  0  0  0  0  0  0  0  0  0  0  0
    0.8807   -0.4720   -1.8857 H   0  0  0  0  0  0  0  0  0  0  0  0
    0.9218   -2.5103   -0.4742 H   0  0  0  0  0  0  0  0  0  0  0  0
   -0.8579   -2.5345   -0.4573 H   0  0  0  0  0  0  0  0  0  0  0  0
   -0.8783   -2.7596   -2.9267 H   0  0  0  0  0  0  0  0  0  0  0  0
    0.9015   -2.7354   -2.9435 H   0  0  0  0  0  0  0  0  0  0  0  0
    0.9426   -4.7737   -1.5321 H   0  0  0  0  0  0  0  0  0  0  0  0
   -0.8371   -4.7979   -1.5152 H   0  0  0  0  0  0  0  0  0  0  0  0
   -1.9718   -7.8409   -7.8727 H   0  0  0  0  0  0  0  0  0  0  0  0
   -3.9285   -5.7655   -6.2575 H   0  0  0  0  0  0  0  0  0  0  0  0
   -4.0442   -7.5417   -6.2585 H   0  0  0  0  0  0  0  0  0  0  0  0
   -3.7747   -6.6683   -4.7311 H   0  0  0  0  0  0  0  0  0  0  0  0
    2.8632   -5.7425   -6.3800 H   0  0  0  0  0  0  0  0  0  0  0  0
    3.2972   -6.6872   -4.9352 H   0  0  0  0  0  0  0  0  0  0  0  0
    2.4651   -7.4754   -6.2970 H   0  0  0  0  0  0  0  0  0  0  0  0
  1  2  1  0  0  0  0
  1 21  1  0  0  0  0
  1 22  1  0  0  0  0
  1 23  1  0  0  0  0
  2  3  2  0  0  0  0
  2  4  1  0  0  0  0
  4  5  1  0  0  0  0
  4 24  1  0  0  0  0
  4 25  1  0  0  0  0
  5  6  1  0  0  0  0
  5 26  1  0  0  0  0
  5 27  1  0  0  0  0
  6  7  1  0  0  0  0
  6 28  1  0  0  0  0
  6 29  1  0  0  0  0
  7  8  1  0  0  0  0
  7 30  1  0  0  0  0
  7 31  1  0  0  0  0
  8 18  1  0  0  0  0
  8  9  1  0  0  0  0
  9 10  2  0  0  0  0
  9 11  1  0  0  0  0
 11 15  1  0  0  0  0
 11 12  2  0  0  0  0
 12 13  1  0  0  0  0
 12 17  1  0  0  0  0
 13 14  2  0  0  0  0
 14 15  1  0  0  0  0
 14 32  1  0  0  0  0
 15 16  1  0  0  0  0
 16 33  1  0  0  0  0
 16 34  1  0  0  0  0
 16 35  1  0  0  0  0
 17 18  1  0  0  0  0
 17 20  1  0  0  0  0
 18 19  2  0  0  0  0
 20 36  1  0  0  0  0
 20 37  1  0  0  0  0
 20 38  1  0  0  0  0
M  END
$$$$
