ZINC01567421
 OpenBabel08292219463D

 46 50  0  0  1  0  0  0  0  0999 V2000
    3.7219    4.4393    3.4418 C   0  0  0  0  0  0  0  0  0  0  0  0
    4.6721    5.2264    2.8193 C   0  0  0  0  0  0  0  0  0  0  0  0
    5.2623    4.8001    1.6409 C   0  0  0  0  0  0  0  0  0  0  0  0
    4.8967    3.5857    1.0920 C   0  0  0  0  0  0  0  0  0  0  0  0
    3.9372    2.7857    1.7175 C   0  0  0  0  0  0  0  0  0  0  0  0
    3.3528    3.2224    2.8963 C   0  0  0  0  0  0  0  0  0  0  0  0
    3.5700    1.5558    1.1609 N   0  0  0  0  0  0  0  0  0  0  0  0
    4.5031    0.7170    0.5421 C   0  0  0  0  0  0  0  0  0  0  0  0
    4.4134   -0.6565    0.6818 C   0  0  0  0  0  0  0  0  0  0  0  0
    5.3394   -1.4779    0.0631 C   0  0  0  0  0  0  0  0  0  0  0  0
    6.3563   -0.9362   -0.7000 C   0  0  0  0  0  0  0  0  0  0  0  0
    6.4544    0.4372   -0.8509 C   0  0  0  0  0  0  0  0  0  0  0  0
    5.5316    1.2616   -0.2356 C   0  0  0  0  0  0  0  0  0  0  0  0
    5.6304    3.0160   -0.4097 S   0  0  0  0  0  0  0  0  0  0  0  0
    2.1697    1.1315    1.2334 C   0  0  0  0  0  0  0  0  0  0  0  0
    1.4202    1.6328   -0.0027 C   0  0  2  0  0  0  0  0  0  0  0  0
    1.9335    1.2949   -0.9030 H   0  0  0  0  0  0  0  0  0  0  0  0
    1.3652    3.1631    0.0161 C   0  0  0  0  0  0  0  0  0  0  0  0
   -0.7182    3.1280    1.2517 C   0  0  0  0  0  0  0  0  0  0  0  0
   -0.7220    1.5968    1.2685 C   0  0  0  0  0  0  0  0  0  0  0  0
   -0.0127    1.0858    0.0080 C   0  0  1  0  0  0  0  0  0  0  0  0
   -0.7459    1.6102   -1.2331 C   0  0  0  0  0  0  0  0  0  0  0  0
   -0.7474    3.1567   -1.1695 C   0  0  0  0  0  0  0  0  0  0  0  0
    3.2641    4.7764    4.3601 H   0  0  0  0  0  0  0  0  0  0  0  0
    4.9546    6.1748    3.2519 H   0  0  0  0  0  0  0  0  0  0  0  0
    6.0051    5.4140    1.1533 H   0  0  0  0  0  0  0  0  0  0  0  0
    2.6093    2.6130    3.3886 H   0  0  0  0  0  0  0  0  0  0  0  0
    3.6219   -1.0873    1.2771 H   0  0  0  0  0  0  0  0  0  0  0  0
    5.2671   -2.5494    0.1777 H   0  0  0  0  0  0  0  0  0  0  0  0
    7.0754   -1.5843   -1.1789 H   0  0  0  0  0  0  0  0  0  0  0  0
    7.2489    0.8620   -1.4465 H   0  0  0  0  0  0  0  0  0  0  0  0
    1.7101    1.5470    2.1302 H   0  0  0  0  0  0  0  0  0  0  0  0
    2.1212    0.0433    1.2711 H   0  0  0  0  0  0  0  0  0  0  0  0
    1.8757    3.5345    0.9046 H   0  0  0  0  0  0  0  0  0  0  0  0
    1.8546    3.5556   -0.8753 H   0  0  0  0  0  0  0  0  0  0  0  0
   -0.1932    3.5000    2.1314 H   0  0  0  0  0  0  0  0  0  0  0  0
   -1.7447    3.4946    1.2587 H   0  0  0  0  0  0  0  0  0  0  0  0
   -1.7498    1.2342    1.2815 H   0  0  0  0  0  0  0  0  0  0  0  0
   -0.1956    1.2400    2.1537 H   0  0  0  0  0  0  0  0  0  0  0  0
    0.0021   -0.0041    0.0020 H   0  0  0  0  0  0  0  0  0  0  0  0
   -0.2365    1.2630   -2.1321 H   0  0  0  0  0  0  0  0  0  0  0  0
   -1.7738    1.2477   -1.2304 H   0  0  0  0  0  0  0  0  0  0  0  0
   -1.7737    3.5228   -1.1429 H   0  0  0  0  0  0  0  0  0  0  0  0
   -0.2438    3.5501   -2.0526 H   0  0  0  0  0  0  0  0  0  0  0  0
   -0.0380    3.6292    0.0386 N   0  3  2  0  0  0  0  0  0  0  0  0
   -0.0480    4.6559    0.0509 H   0  0  0  0  0  0  0  0  0  0  0  0
  1  6  2  0  0  0  0
  1  2  1  0  0  0  0
  1 24  1  0  0  0  0
  2  3  2  0  0  0  0
  2 25  1  0  0  0  0
  3  4  1  0  0  0  0
  3 26  1  0  0  0  0
  4 14  1  0  0  0  0
  4  5  2  0  0  0  0
  5  6  1  0  0  0  0
  5  7  1  0  0  0  0
  6 27  1  0  0  0  0
  7  8  1  0  0  0  0
  7 15  1  0  0  0  0
  8 13  2  0  0  0  0
  8  9  1  0  0  0  0
  9 10  2  0  0  0  0
  9 28  1  0  0  0  0
 10 11  1  0  0  0  0
 10 29  1  0  0  0  0
 11 12  2  0  0  0  0
 11 30  1  0  0  0  0
 12 13  1  0  0  0  0
 12 31  1  0  0  0  0
 13 14  1  0  0  0  0
 15 16  1  0  0  0  0
 15 32  1  0  0  0  0
 15 33  1  0  0  0  0
 16 17  1  6  0  0  0
 16 21  1  0  0  0  0
 16 18  1  0  0  0  0
 18 34  1  0  0  0  0
 18 35  1  0  0  0  0
 18 45  1  0  0  0  0
 19 20  1  0  0  0  0
 19 36  1  0  0  0  0
 19 37  1  0  0  0  0
 19 45  1  0  0  0  0
 20 21  1  0  0  0  0
 20 38  1  0  0  0  0
 20 39  1  0  0  0  0
 21 22  1  0  0  0  0
 21 40  1  6  0  0  0
 22 23  1  0  0  0  0
 22 41  1  0  0  0  0
 22 42  1  0  0  0  0
 23 43  1  0  0  0  0
 23 44  1  0  0  0  0
 23 45  1  0  0  0  0
 45 46  1  1  0  0  0
M  CHG  1  45   1
M  END
$$$$
