ZINC03875543
 OpenBabel08292219463D

 38 40  0  0  1  0  0  0  0  0999 V2000
   -0.4184    1.5526   -0.4909 C   0  0  0  0  0  0  0  0  0  0  0  0
   -0.2408    0.0697   -0.2899 C   0  0  0  0  0  0  0  0  0  0  0  0
    0.8685   -0.3985   -0.1972 O   0  0  0  0  0  0  0  0  0  0  0  0
   -1.4475   -0.8290   -0.2046 C   0  0  0  0  0  0  0  0  0  0  0  0
   -0.9927   -2.2755   -0.0007 C   0  0  1  0  0  0  0  0  0  0  0  0
   -0.2604   -2.5372   -0.7644 H   0  0  0  0  0  0  0  0  0  0  0  0
   -0.3686   -2.4183    1.3636 C   0  0  0  0  0  0  0  0  0  0  0  0
   -1.0888   -2.0750    2.4924 C   0  0  0  0  0  0  0  0  0  0  0  0
   -0.5163   -2.2060    3.7438 C   0  0  0  0  0  0  0  0  0  0  0  0
    0.7762   -2.6807    3.8664 C   0  0  0  0  0  0  0  0  0  0  0  0
    1.4960   -3.0248    2.7376 C   0  0  0  0  0  0  0  0  0  0  0  0
    0.9221   -2.8979    1.4864 C   0  0  0  0  0  0  0  0  0  0  0  0
   -2.1813   -3.1957   -0.1081 C   0  0  0  0  0  0  0  0  0  0  0  0
   -3.4491   -2.6967    0.0107 C   0  0  0  0  0  0  0  0  0  0  0  0
   -4.5750   -3.6369   -0.1018 C   0  0  0  0  0  0  0  0  0  0  0  0
   -5.8954   -3.1961    0.0090 C   0  0  0  0  0  0  0  0  0  0  0  0
   -6.9268   -4.1019   -0.1016 C   0  0  0  0  0  0  0  0  0  0  0  0
   -6.6586   -5.4451   -0.3218 C   0  0  0  0  0  0  0  0  0  0  0  0
   -5.3593   -5.8935   -0.4327 C   0  0  0  0  0  0  0  0  0  0  0  0
   -4.3044   -4.9964   -0.3248 C   0  0  0  0  0  0  0  0  0  0  0  0
   -3.0260   -5.4185   -0.4323 O   0  0  0  0  0  0  0  0  0  0  0  0
   -1.9922   -4.5673   -0.3363 C   0  0  0  0  0  0  0  0  0  0  0  0
   -0.8577   -4.9986   -0.4454 O   0  0  0  0  0  0  0  0  0  0  0  0
   -3.6614   -1.3784    0.2258 O   0  5  0  0  0  0  0  0  0  0  0  0
    0.5589    2.0340   -0.5274 H   0  0  0  0  0  0  0  0  0  0  0  0
   -0.9468    1.7316   -1.4273 H   0  0  0  0  0  0  0  0  0  0  0  0
   -0.9958    1.9649    0.3366 H   0  0  0  0  0  0  0  0  0  0  0  0
   -2.0704   -0.5221    0.6356 H   0  0  0  0  0  0  0  0  0  0  0  0
   -2.0214   -0.7554   -1.1284 H   0  0  0  0  0  0  0  0  0  0  0  0
   -2.0986   -1.7041    2.3967 H   0  0  0  0  0  0  0  0  0  0  0  0
   -1.0787   -1.9371    4.6258 H   0  0  0  0  0  0  0  0  0  0  0  0
    1.2237   -2.7823    4.8441 H   0  0  0  0  0  0  0  0  0  0  0  0
    2.5060   -3.3954    2.8333 H   0  0  0  0  0  0  0  0  0  0  0  0
    1.4831   -3.1703    0.6048 H   0  0  0  0  0  0  0  0  0  0  0  0
   -6.1066   -2.1510    0.1808 H   0  0  0  0  0  0  0  0  0  0  0  0
   -7.9494   -3.7651   -0.0161 H   0  0  0  0  0  0  0  0  0  0  0  0
   -7.4754   -6.1465   -0.4069 H   0  0  0  0  0  0  0  0  0  0  0  0
   -5.1621   -6.9415   -0.6035 H   0  0  0  0  0  0  0  0  0  0  0  0
  1  2  1  0  0  0  0
  1 25  1  0  0  0  0
  1 26  1  0  0  0  0
  1 27  1  0  0  0  0
  2  3  2  0  0  0  0
  2  4  1  0  0  0  0
  4  5  1  0  0  0  0
  4 28  1  0  0  0  0
  4 29  1  0  0  0  0
  5  6  1  6  0  0  0
  5  7  1  0  0  0  0
  5 13  1  0  0  0  0
  7 12  2  0  0  0  0
  7  8  1  0  0  0  0
  8  9  2  0  0  0  0
  8 30  1  0  0  0  0
  9 10  1  0  0  0  0
  9 31  1  0  0  0  0
 10 11  2  0  0  0  0
 10 32  1  0  0  0  0
 11 12  1  0  0  0  0
 11 33  1  0  0  0  0
 12 34  1  0  0  0  0
 13 22  1  0  0  0  0
 13 14  2  0  0  0  0
 14 15  1  0  0  0  0
 14 24  1  0  0  0  0
 15 20  2  0  0  0  0
 15 16  1  0  0  0  0
 16 17  2  0  0  0  0
 16 35  1  0  0  0  0
 17 18  1  0  0  0  0
 17 36  1  0  0  0  0
 18 19  2  0  0  0  0
 18 37  1  0  0  0  0
 19 20  1  0  0  0  0
 19 38  1  0  0  0  0
 20 21  1  0  0  0  0
 21 22  1  0  0  0  0
 22 23  2  0  0  0  0
M  CHG  1  24  -1
M  END
$$$$
