ZINC01482164
 OpenBabel08292219463D

 31 31  0  0  1  0  0  0  0  0999 V2000
   -0.0084    1.5301    0.0359 C   0  0  0  0  0  0  0  0  0  0  0  0
    0.0118    0.0003    0.0219 C   0  0  2  0  0  0  0  0  0  0  0  0
    0.5277   -0.3480   -0.8729 H   0  0  0  0  0  0  0  0  0  0  0  0
   -1.4239   -0.5287    0.0213 C   0  0  0  0  0  0  0  0  0  0  0  0
   -1.4037   -2.0585    0.0072 C   0  0  0  0  0  0  0  0  0  0  0  0
   -0.6720   -2.5704    1.2497 C   0  0  2  0  0  0  0  0  0  0  0  0
   -1.1879   -2.2220    2.1444 H   0  0  0  0  0  0  0  0  0  0  0  0
    0.7636   -2.0413    1.2502 C   0  0  1  0  0  0  0  0  0  0  0  0
    1.2795   -2.3897    0.3555 H   0  0  0  0  0  0  0  0  0  0  0  0
    0.7434   -0.5115    1.2643 C   0  0  0  0  0  0  0  0  0  0  0  0
    1.4470   -2.5194    2.4106 O   0  0  0  0  0  0  0  0  0  0  0  0
   -0.6518   -4.1002    1.2356 C   0  0  0  0  0  0  0  0  0  0  0  0
   -2.0805   -4.6303    1.3721 C   0  0  0  0  0  0  0  0  0  0  0  0
   -0.0498   -4.5901   -0.0829 C   0  0  0  0  0  0  0  0  0  0  0  0
    1.0144    1.9070    0.0363 H   0  0  0  0  0  0  0  0  0  0  0  0
   -0.5296    1.8947   -0.8492 H   0  0  0  0  0  0  0  0  0  0  0  0
   -0.5243    1.8784    0.9307 H   0  0  0  0  0  0  0  0  0  0  0  0
   -1.9398   -0.1804    0.9161 H   0  0  0  0  0  0  0  0  0  0  0  0
   -1.9451   -0.1641   -0.8638 H   0  0  0  0  0  0  0  0  0  0  0  0
   -2.4264   -2.4354    0.0068 H   0  0  0  0  0  0  0  0  0  0  0  0
   -0.8877   -2.4069   -0.8875 H   0  0  0  0  0  0  0  0  0  0  0  0
    1.7662   -0.1347    1.2647 H   0  0  0  0  0  0  0  0  0  0  0  0
    0.2275   -0.1632    2.1590 H   0  0  0  0  0  0  0  0  0  0  0  0
    2.3649   -2.2225    2.4767 H   0  0  0  0  0  0  0  0  0  0  0  0
   -0.0485   -4.4632    2.0676 H   0  0  0  0  0  0  0  0  0  0  0  0
   -2.6594   -4.3450    0.4937 H   0  0  0  0  0  0  0  0  0  0  0  0
   -2.0584   -5.7169    1.4554 H   0  0  0  0  0  0  0  0  0  0  0  0
   -2.5415   -4.2068    2.2644 H   0  0  0  0  0  0  0  0  0  0  0  0
    0.9680   -4.2124   -0.1802 H   0  0  0  0  0  0  0  0  0  0  0  0
   -0.0354   -5.6800   -0.0929 H   0  0  0  0  0  0  0  0  0  0  0  0
   -0.6532   -4.2271   -0.9149 H   0  0  0  0  0  0  0  0  0  0  0  0
  1  2  1  0  0  0  0
  1 15  1  0  0  0  0
  1 16  1  0  0  0  0
  1 17  1  0  0  0  0
  2  3  1  6  0  0  0
  2 10  1  0  0  0  0
  2  4  1  0  0  0  0
  4  5  1  0  0  0  0
  4 18  1  0  0  0  0
  4 19  1  0  0  0  0
  5  6  1  0  0  0  0
  5 20  1  0  0  0  0
  5 21  1  0  0  0  0
  6  7  1  1  0  0  0
  6  8  1  0  0  0  0
  6 12  1  0  0  0  0
  8  9  1  6  0  0  0
  8 10  1  0  0  0  0
  8 11  1  0  0  0  0
 10 22  1  0  0  0  0
 10 23  1  0  0  0  0
 11 24  1  0  0  0  0
 12 13  1  0  0  0  0
 12 14  1  0  0  0  0
 12 25  1  0  0  0  0
 13 26  1  0  0  0  0
 13 27  1  0  0  0  0
 13 28  1  0  0  0  0
 14 29  1  0  0  0  0
 14 30  1  0  0  0  0
 14 31  1  0  0  0  0
M  END
$$$$
