ZINC03788703
 OpenBabel08292219463D

 40 40  0  0  1  0  0  0  0  0999 V2000
   -0.0919    1.7492    0.0029 C   0  0  0  0  0  0  0  0  0  0  0  0
    1.3788    2.1706    0.0206 C   0  0  1  0  0  0  0  0  0  0  0  0
    1.4459    3.2577   -0.0226 H   0  0  0  0  0  0  0  0  0  0  0  0
    2.0374    1.6697    1.3076 C   0  0  1  0  0  0  0  0  0  0  0  0
    1.5259    2.0998    2.1686 H   0  0  0  0  0  0  0  0  0  0  0  0
    1.9433    0.1438    1.3682 C   0  0  2  0  0  0  0  0  0  0  0  0
    2.4549   -0.2862    0.5071 H   0  0  0  0  0  0  0  0  0  0  0  0
    0.4726   -0.2775    1.3505 C   0  0  1  0  0  0  0  0  0  0  0  0
   -0.0389    0.1525    2.2116 H   0  0  0  0  0  0  0  0  0  0  0  0
   -0.1860    0.2233    0.0635 C   0  0  1  0  0  0  0  0  0  0  0  0
   -1.6567   -0.1980    0.0459 C   0  0  0  0  0  0  0  0  0  0  0  0
   -1.7488   -1.6135    0.2195 O   0  0  0  0  0  0  0  0  0  0  0  0
    0.4846   -0.3405   -1.0654 O   0  0  0  0  0  0  0  0  0  0  0  0
    0.3847   -1.7027    1.4071 O   0  0  0  0  0  0  0  0  0  0  0  0
    2.5584   -0.3240    2.5702 O   0  0  0  0  0  0  0  0  0  0  0  0
    3.4111    2.0633    1.3241 O   0  0  0  0  0  0  0  0  0  0  0  0
    2.0682    1.5910   -1.1399 N   0  3  0  0  0  0  0  0  0  0  0  0
    1.4490    2.0880   -2.3758 C   0  0  0  0  0  0  0  0  0  0  0  0
    1.6824    3.5956   -2.4927 C   0  0  0  0  0  0  0  0  0  0  0  0
    3.0839    3.8537   -2.5992 O   0  0  0  0  0  0  0  0  0  0  0  0
    2.0740    1.3803   -3.5798 C   0  0  0  0  0  0  0  0  0  0  0  0
    3.4542    1.7372   -3.6784 O   0  0  0  0  0  0  0  0  0  0  0  0
   -0.6034    2.1793    0.8640 H   0  0  0  0  0  0  0  0  0  0  0  0
   -0.5611    2.1060   -0.9139 H   0  0  0  0  0  0  0  0  0  0  0  0
   -2.1879    0.3027    0.8554 H   0  0  0  0  0  0  0  0  0  0  0  0
   -2.1031    0.0807   -0.9087 H   0  0  0  0  0  0  0  0  0  0  0  0
   -2.6547   -1.9517    0.2186 H   0  0  0  0  0  0  0  0  0  0  0  0
    0.4650   -1.3069   -1.0922 H   0  0  0  0  0  0  0  0  0  0  0  0
    0.7831   -2.0902    2.1985 H   0  0  0  0  0  0  0  0  0  0  0  0
    2.5357   -1.2849    2.6754 H   0  0  0  0  0  0  0  0  0  0  0  0
    3.9107    1.7160    2.0756 H   0  0  0  0  0  0  0  0  0  0  0  0
    3.0413    1.8573   -1.1206 H   0  0  0  0  0  0  0  0  0  0  0  0
    0.3780    1.8869   -2.3519 H   0  0  0  0  0  0  0  0  0  0  0  0
    1.1748    3.9741   -3.3800 H   0  0  0  0  0  0  0  0  0  0  0  0
    1.2873    4.0941   -1.6076 H   0  0  0  0  0  0  0  0  0  0  0  0
    3.3062    4.7916   -2.6768 H   0  0  0  0  0  0  0  0  0  0  0  0
    1.9859    0.3013   -3.4529 H   0  0  0  0  0  0  0  0  0  0  0  0
    1.5546    1.6828   -4.4890 H   0  0  0  0  0  0  0  0  0  0  0  0
    3.9152    1.3240   -4.4213 H   0  0  0  0  0  0  0  0  0  0  0  0
    1.9940    0.5853   -1.1074 H   0  0  0  0  0  0  0  0  0  0  0  0
  1 10  1  0  0  0  0
  1  2  1  0  0  0  0
  1 23  1  0  0  0  0
  1 24  1  0  0  0  0
  2  3  1  6  0  0  0
  2  4  1  0  0  0  0
  2 17  1  0  0  0  0
  4  5  1  1  0  0  0
  4  6  1  0  0  0  0
  4 16  1  0  0  0  0
  6  7  1  6  0  0  0
  6  8  1  0  0  0  0
  6 15  1  0  0  0  0
  8  9  1  1  0  0  0
  8 10  1  0  0  0  0
  8 14  1  0  0  0  0
 10 11  1  0  0  0  0
 10 13  1  6  0  0  0
 11 12  1  0  0  0  0
 11 25  1  0  0  0  0
 11 26  1  0  0  0  0
 12 27  1  0  0  0  0
 13 28  1  0  0  0  0
 14 29  1  0  0  0  0
 15 30  1  0  0  0  0
 16 31  1  0  0  0  0
 17 18  1  0  0  0  0
 17 32  1  0  0  0  0
 17 40  1  0  0  0  0
 18 19  1  0  0  0  0
 18 21  1  0  0  0  0
 18 33  1  0  0  0  0
 19 20  1  0  0  0  0
 19 34  1  0  0  0  0
 19 35  1  0  0  0  0
 20 36  1  0  0  0  0
 21 22  1  0  0  0  0
 21 37  1  0  0  0  0
 21 38  1  0  0  0  0
 22 39  1  0  0  0  0
M  CHG  1  17   1
M  END
$$$$
