ZINC02041302
 OpenBabel08292219463D

 26 25  0  0  1  0  0  0  0  0999 V2000
   -0.0187    1.5258    0.0104 C   0  0  0  0  0  0  0  0  0  0  0  0
    0.0021   -0.0041    0.0020 C   0  0  2  0  0  0  0  0  0  0  0  0
    0.5883   -0.3548   -0.8473 H   0  0  0  0  0  0  0  0  0  0  0  0
   -1.4290   -0.5329   -0.1129 C   0  0  2  0  0  0  0  0  0  0  0  0
   -2.0153   -0.1821    0.7365 H   0  0  0  0  0  0  0  0  0  0  0  0
   -1.4083   -2.0627   -0.1213 C   0  0  1  0  0  0  0  0  0  0  0  0
   -1.0427   -2.4264    0.8390 H   0  0  0  0  0  0  0  0  0  0  0  0
   -2.8241   -2.5907   -0.3611 C   0  0  1  0  0  0  0  0  0  0  0  0
   -3.1897   -2.2270   -1.3214 H   0  0  0  0  0  0  0  0  0  0  0  0
   -2.8034   -4.1205   -0.3695 C   0  0  0  0  0  0  0  0  0  0  0  0
   -4.1014   -4.6126   -0.7085 O   0  0  0  0  0  0  0  0  0  0  0  0
   -3.6866   -2.1317    0.6817 O   0  0  0  0  0  0  0  0  0  0  0  0
   -0.5458   -2.5217   -1.1641 O   0  0  0  0  0  0  0  0  0  0  0  0
   -2.0164   -0.0578   -1.3258 O   0  0  0  0  0  0  0  0  0  0  0  0
    0.5895   -0.4792    1.2150 O   0  0  0  0  0  0  0  0  0  0  0  0
    1.3220    2.0204    0.0003 O   0  0  0  0  0  0  0  0  0  0  0  0
   -0.5459    1.8868   -0.8726 H   0  0  0  0  0  0  0  0  0  0  0  0
   -0.5289    1.8773    0.9072 H   0  0  0  0  0  0  0  0  0  0  0  0
   -2.0788   -4.4700   -1.1050 H   0  0  0  0  0  0  0  0  0  0  0  0
   -2.5230   -4.4855    0.6185 H   0  0  0  0  0  0  0  0  0  0  0  0
   -4.1623   -5.5774   -0.7329 H   0  0  0  0  0  0  0  0  0  0  0  0
   -3.4213   -2.4184    1.5663 H   0  0  0  0  0  0  0  0  0  0  0  0
   -0.8112   -2.2351   -2.0487 H   0  0  0  0  0  0  0  0  0  0  0  0
   -1.5458   -0.3324   -2.1247 H   0  0  0  0  0  0  0  0  0  0  0  0
    0.1188   -0.2046    2.0138 H   0  0  0  0  0  0  0  0  0  0  0  0
    1.3852    2.9853    0.0049 H   0  0  0  0  0  0  0  0  0  0  0  0
  1  2  1  0  0  0  0
  1 16  1  0  0  0  0
  1 17  1  0  0  0  0
  1 18  1  0  0  0  0
  2  3  1  6  0  0  0
  2  4  1  0  0  0  0
  2 15  1  0  0  0  0
  4  5  1  1  0  0  0
  4  6  1  0  0  0  0
  4 14  1  0  0  0  0
  6  7  1  1  0  0  0
  6  8  1  0  0  0  0
  6 13  1  0  0  0  0
  8  9  1  6  0  0  0
  8 10  1  0  0  0  0
  8 12  1  0  0  0  0
 10 11  1  0  0  0  0
 10 19  1  0  0  0  0
 10 20  1  0  0  0  0
 11 21  1  0  0  0  0
 12 22  1  0  0  0  0
 13 23  1  0  0  0  0
 14 24  1  0  0  0  0
 15 25  1  0  0  0  0
 16 26  1  0  0  0  0
M  END
$$$$
