ZINC00897229
 OpenBabel08292219463D

 31 32  0  0  1  0  0  0  0  0999 V2000
   -0.2063    1.5522   -0.0413 C   0  0  0  0  0  0  0  0  0  0  0  0
   -0.0686    0.0938   -0.0597 N   0  0  0  0  0  0  0  0  0  0  0  0
   -1.2389   -0.8049    0.0034 C   0  0  2  0  0  0  0  0  0  0  0  0
   -2.1498   -0.2133    0.0953 H   0  0  0  0  0  0  0  0  0  0  0  0
   -1.0993   -1.6740    1.1692 N   0  0  0  0  0  0  0  0  0  0  0  0
    0.0561   -2.3986    1.4495 C   0  0  0  0  0  0  0  0  0  0  0  0
   -0.0364   -3.5169    2.2766 C   0  0  0  0  0  0  0  0  0  0  0  0
    1.0933   -4.2466    2.5867 C   0  0  0  0  0  0  0  0  0  0  0  0
    2.3261   -3.8723    2.0805 C   0  0  0  0  0  0  0  0  0  0  0  0
    2.4240   -2.7675    1.2544 C   0  0  0  0  0  0  0  0  0  0  0  0
    1.2953   -2.0416    0.9353 C   0  0  0  0  0  0  0  0  0  0  0  0
    1.4193   -0.6539   -0.1601 S   0  0  0  0  0  0  0  0  0  0  0  0
    2.3710    0.2376    0.4045 O   0  0  0  0  0  0  0  0  0  0  0  0
    1.5361   -1.1709   -1.4785 O   0  0  0  0  0  0  0  0  0  0  0  0
    3.7671   -4.8007    2.4881 S   0  0  0  0  0  0  0  0  0  0  0  0
    3.4474   -6.1668    2.2625 O   0  0  0  0  0  0  0  0  0  0  0  0
    4.8596   -4.1579    1.8458 O   0  0  0  0  0  0  0  0  0  0  0  0
    4.0118   -4.6348    4.1175 N   0  0  0  0  0  0  0  0  0  0  0  0
    0.9678   -5.6389    3.6160 Cl  0  0  0  0  0  0  0  0  0  0  0  0
   -1.3039   -1.6530   -1.2684 C   0  0  0  0  0  0  0  0  0  0  0  0
   -2.8198   -2.6291   -1.2632 Cl  0  0  0  0  0  0  0  0  0  0  0  0
    0.7806    2.0111   -0.1016 H   0  0  0  0  0  0  0  0  0  0  0  0
   -0.8079    1.8711   -0.8924 H   0  0  0  0  0  0  0  0  0  0  0  0
   -0.6939    1.8595    0.8838 H   0  0  0  0  0  0  0  0  0  0  0  0
   -1.8498   -1.7504    1.7790 H   0  0  0  0  0  0  0  0  0  0  0  0
   -0.9950   -3.8130    2.6763 H   0  0  0  0  0  0  0  0  0  0  0  0
    3.3848   -2.4728    0.8590 H   0  0  0  0  0  0  0  0  0  0  0  0
    3.4027   -4.0968    4.6471 H   0  0  0  0  0  0  0  0  0  0  0  0
    4.7642   -5.0756    4.5423 H   0  0  0  0  0  0  0  0  0  0  0  0
   -1.2950   -1.0003   -2.1413 H   0  0  0  0  0  0  0  0  0  0  0  0
   -0.4425   -2.3200   -1.3048 H   0  0  0  0  0  0  0  0  0  0  0  0
  1  2  1  0  0  0  0
  1 22  1  0  0  0  0
  1 23  1  0  0  0  0
  1 24  1  0  0  0  0
  2 12  1  0  0  0  0
  2  3  1  0  0  0  0
  3  4  1  1  0  0  0
  3  5  1  0  0  0  0
  3 20  1  0  0  0  0
  5  6  1  0  0  0  0
  5 25  1  0  0  0  0
  6 11  2  0  0  0  0
  6  7  1  0  0  0  0
  7  8  2  0  0  0  0
  7 26  1  0  0  0  0
  8  9  1  0  0  0  0
  8 19  1  0  0  0  0
  9 10  2  0  0  0  0
  9 15  1  0  0  0  0
 10 11  1  0  0  0  0
 10 27  1  0  0  0  0
 11 12  1  0  0  0  0
 12 13  2  0  0  0  0
 12 14  2  0  0  0  0
 15 16  2  0  0  0  0
 15 17  2  0  0  0  0
 15 18  1  0  0  0  0
 18 28  1  0  0  0  0
 18 29  1  0  0  0  0
 20 21  1  0  0  0  0
 20 30  1  0  0  0  0
 20 31  1  0  0  0  0
M  END
$$$$
