ZINC02077807
 OpenBabel08292219463D

 30 29  0  0  1  0  0  0  0  0999 V2000
   -0.0184    1.5028    0.0103 C   0  0  0  0  0  0  0  0  0  0  0  0
    0.0021   -0.0041    0.0020 C   0  0  0  0  0  0  0  0  0  0  0  0
    1.0605   -0.5961   -0.0113 O   0  0  0  0  0  0  0  0  0  0  0  0
   -1.1558   -0.6938    0.0094 N   0  0  0  0  0  0  0  0  0  0  0  0
   -1.1360   -2.1586    0.0013 C   0  0  1  0  0  0  0  0  0  0  0  0
   -0.2950   -2.5073   -0.5981 H   0  0  0  0  0  0  0  0  0  0  0  0
   -0.9918   -2.6668    1.4127 C   0  0  0  0  0  0  0  0  0  0  0  0
   -0.9137   -1.8860    2.3306 O   0  0  0  0  0  0  0  0  0  0  0  0
   -2.4420   -2.6831   -0.5987 C   0  0  2  0  0  0  0  0  0  0  0  0
   -2.4272   -3.7730   -0.6047 H   0  0  0  0  0  0  0  0  0  0  0  0
   -2.5884   -2.1671   -2.0316 C   0  0  1  0  0  0  0  0  0  0  0  0
   -1.7968   -2.5876   -2.6518 H   0  0  0  0  0  0  0  0  0  0  0  0
   -3.9501   -2.5873   -2.5884 C   0  0  1  0  0  0  0  0  0  0  0  0
   -4.7417   -2.1668   -1.9682 H   0  0  0  0  0  0  0  0  0  0  0  0
   -4.0964   -2.0714   -4.0213 C   0  0  0  0  0  0  0  0  0  0  0  0
   -5.4109   -2.3623   -4.5004 O   0  0  0  0  0  0  0  0  0  0  0  0
   -4.0475   -4.0130   -2.5832 O   0  0  0  0  0  0  0  0  0  0  0  0
   -2.4910   -0.7415   -2.0368 O   0  0  0  0  0  0  0  0  0  0  0  0
   -3.5446   -2.2260    0.1871 O   0  0  0  0  0  0  0  0  0  0  0  0
    1.0042    1.8801    0.0026 H   0  0  0  0  0  0  0  0  0  0  0  0
   -0.5455    1.8639   -0.8728 H   0  0  0  0  0  0  0  0  0  0  0  0
   -0.5286    1.8543    0.9071 H   0  0  0  0  0  0  0  0  0  0  0  0
   -2.0023   -0.2203    0.0200 H   0  0  0  0  0  0  0  0  0  0  0  0
   -0.9583   -3.7293    1.6033 H   0  0  0  0  0  0  0  0  0  0  0  0
   -3.9339   -0.9937   -4.0378 H   0  0  0  0  0  0  0  0  0  0  0  0
   -3.3606   -2.5596   -4.6602 H   0  0  0  0  0  0  0  0  0  0  0  0
   -5.5751   -2.0628   -5.4051 H   0  0  0  0  0  0  0  0  0  0  0  0
   -3.3725   -4.4553   -3.1160 H   0  0  0  0  0  0  0  0  0  0  0  0
   -3.1659   -0.2992   -1.5040 H   0  0  0  0  0  0  0  0  0  0  0  0
   -3.6198   -1.2632    0.2368 H   0  0  0  0  0  0  0  0  0  0  0  0
  1  2  1  0  0  0  0
  1 20  1  0  0  0  0
  1 21  1  0  0  0  0
  1 22  1  0  0  0  0
  2  3  2  0  0  0  0
  2  4  1  0  0  0  0
  4  5  1  0  0  0  0
  4 23  1  0  0  0  0
  5  6  1  6  0  0  0
  5  7  1  0  0  0  0
  5  9  1  0  0  0  0
  7  8  2  0  0  0  0
  7 24  1  0  0  0  0
  9 10  1  6  0  0  0
  9 11  1  0  0  0  0
  9 19  1  0  0  0  0
 11 12  1  6  0  0  0
 11 13  1  0  0  0  0
 11 18  1  0  0  0  0
 13 14  1  1  0  0  0
 13 15  1  0  0  0  0
 13 17  1  0  0  0  0
 15 16  1  0  0  0  0
 15 25  1  0  0  0  0
 15 26  1  0  0  0  0
 16 27  1  0  0  0  0
 17 28  1  0  0  0  0
 18 29  1  0  0  0  0
 19 30  1  0  0  0  0
M  END
$$$$
