ZINC00000401
 OpenBabel08292219463D

 39 39  0  0  1  0  0  0  0  0999 V2000
    1.8900    1.1370    0.8071 C   0  0  0  0  0  0  0  0  0  0  0  0
    0.8471    0.0815    0.4340 C   0  0  0  0  0  0  0  0  0  0  0  0
    1.1695   -0.4872   -0.9494 C   0  0  1  0  0  0  0  0  0  0  0  0
    2.2003   -0.8409   -0.9656 H   0  0  0  0  0  0  0  0  0  0  0  0
    0.2257   -1.6522   -1.2544 C   0  0  2  0  0  0  0  0  0  0  0  0
    0.3787   -2.4450   -0.5223 H   0  0  0  0  0  0  0  0  0  0  0  0
    0.5119   -2.1820   -2.6359 C   0  0  0  0  0  0  0  0  0  0  0  0
   -0.2509   -1.7590   -3.7085 C   0  0  0  0  0  0  0  0  0  0  0  0
    0.0077   -2.2421   -4.9777 C   0  0  0  0  0  0  0  0  0  0  0  0
    1.0335   -3.1520   -5.1770 C   0  0  0  0  0  0  0  0  0  0  0  0
    1.8016   -3.5774   -4.0974 C   0  0  0  0  0  0  0  0  0  0  0  0
    1.5402   -3.0856   -2.8286 C   0  0  0  0  0  0  0  0  0  0  0  0
    2.8095   -4.4703   -4.2879 O   0  0  0  0  0  0  0  0  0  0  0  0
    1.2889   -3.6286   -6.4249 O   0  0  0  0  0  0  0  0  0  0  0  0
   -1.1278   -1.1983   -1.1893 O   0  0  0  0  0  0  0  0  0  0  0  0
    0.9957    0.5620   -1.9627 N   0  3  0  0  0  0  0  0  0  0  0  0
    1.8430    0.2649   -3.1254 C   0  0  0  0  0  0  0  0  0  0  0  0
    1.5431    1.2649   -4.2439 C   0  0  0  0  0  0  0  0  0  0  0  0
    3.3155    0.3744   -2.7247 C   0  0  0  0  0  0  0  0  0  0  0  0
    2.8699    0.6666    0.8887 H   0  0  0  0  0  0  0  0  0  0  0  0
    1.9196    1.9069    0.0361 H   0  0  0  0  0  0  0  0  0  0  0  0
    1.6234    1.5894    1.7623 H   0  0  0  0  0  0  0  0  0  0  0  0
    0.8641   -0.7222    1.1702 H   0  0  0  0  0  0  0  0  0  0  0  0
   -0.1424    0.5383    0.4175 H   0  0  0  0  0  0  0  0  0  0  0  0
   -1.0508   -1.0499   -3.5546 H   0  0  0  0  0  0  0  0  0  0  0  0
   -0.5901   -1.9106   -5.8139 H   0  0  0  0  0  0  0  0  0  0  0  0
    2.1372   -3.4113   -1.9896 H   0  0  0  0  0  0  0  0  0  0  0  0
    3.6647   -4.0626   -4.4816 H   0  0  0  0  0  0  0  0  0  0  0  0
    1.9264   -3.1005   -6.9247 H   0  0  0  0  0  0  0  0  0  0  0  0
   -1.3360   -0.4911   -1.8149 H   0  0  0  0  0  0  0  0  0  0  0  0
    0.0292    0.5949   -2.2505 H   0  0  0  0  0  0  0  0  0  0  0  0
    1.6363   -0.7460   -3.4768 H   0  0  0  0  0  0  0  0  0  0  0  0
    1.7498    2.2758   -3.8925 H   0  0  0  0  0  0  0  0  0  0  0  0
    2.1718    1.0444   -5.1066 H   0  0  0  0  0  0  0  0  0  0  0  0
    0.4941    1.1869   -4.5294 H   0  0  0  0  0  0  0  0  0  0  0  0
    3.5571   -0.4125   -2.0101 H   0  0  0  0  0  0  0  0  0  0  0  0
    3.9420    0.2660   -3.6101 H   0  0  0  0  0  0  0  0  0  0  0  0
    3.4965    1.3476   -2.2684 H   0  0  0  0  0  0  0  0  0  0  0  0
    1.2610    1.4538   -1.5724 H   0  0  0  0  0  0  0  0  0  0  0  0
  1  2  1  0  0  0  0
  1 20  1  0  0  0  0
  1 21  1  0  0  0  0
  1 22  1  0  0  0  0
  2  3  1  0  0  0  0
  2 23  1  0  0  0  0
  2 24  1  0  0  0  0
  3  4  1  6  0  0  0
  3  5  1  0  0  0  0
  3 16  1  0  0  0  0
  5  6  1  1  0  0  0
  5  7  1  0  0  0  0
  5 15  1  0  0  0  0
  7 12  2  0  0  0  0
  7  8  1  0  0  0  0
  8  9  2  0  0  0  0
  8 25  1  0  0  0  0
  9 10  1  0  0  0  0
  9 26  1  0  0  0  0
 10 11  2  0  0  0  0
 10 14  1  0  0  0  0
 11 12  1  0  0  0  0
 11 13  1  0  0  0  0
 12 27  1  0  0  0  0
 13 28  1  0  0  0  0
 14 29  1  0  0  0  0
 15 30  1  0  0  0  0
 16 17  1  0  0  0  0
 16 31  1  0  0  0  0
 16 39  1  0  0  0  0
 17 18  1  0  0  0  0
 17 19  1  0  0  0  0
 17 32  1  0  0  0  0
 18 33  1  0  0  0  0
 18 34  1  0  0  0  0
 18 35  1  0  0  0  0
 19 36  1  0  0  0  0
 19 37  1  0  0  0  0
 19 38  1  0  0  0  0
M  CHG  1  16   1
M  END
$$$$
