ZINC00000808
 OpenBabel08292219463D

 44 46  0  0  1  0  0  0  0  0999 V2000
   -0.0187    1.5258    0.0104 C   0  0  0  0  0  0  0  0  0  0  0  0
    0.0021   -0.0041    0.0020 C   0  0  1  0  0  0  0  0  0  0  0  0
    0.5293   -0.3651    0.8851 H   0  0  0  0  0  0  0  0  0  0  0  0
   -1.4333   -0.5336    0.0129 C   0  0  0  0  0  0  0  0  0  0  0  0
   -2.0815   -0.1618    1.2729 N   0  0  0  0  0  0  0  0  0  0  0  0
   -1.9890   -1.0291    2.3667 C   0  0  0  0  0  0  0  0  0  0  0  0
   -2.0394   -2.4013    2.1775 C   0  0  0  0  0  0  0  0  0  0  0  0
   -1.9489   -3.2530    3.2647 C   0  0  0  0  0  0  0  0  0  0  0  0
   -1.8085   -2.7454    4.5421 C   0  0  0  0  0  0  0  0  0  0  0  0
   -1.7568   -1.3755    4.7428 C   0  0  0  0  0  0  0  0  0  0  0  0
   -1.8465   -0.5211    3.6606 C   0  0  0  0  0  0  0  0  0  0  0  0
   -1.7842    1.2294    3.8842 S   0  0  0  0  0  0  0  0  0  0  0  0
   -2.7311    1.8182    2.5151 C   0  0  0  0  0  0  0  0  0  0  0  0
   -2.7707    1.0533    1.3500 C   0  0  0  0  0  0  0  0  0  0  0  0
   -3.5071    1.5097    0.2680 C   0  0  0  0  0  0  0  0  0  0  0  0
   -4.1880    2.7116    0.3525 C   0  0  0  0  0  0  0  0  0  0  0  0
   -4.1399    3.4636    1.5107 C   0  0  0  0  0  0  0  0  0  0  0  0
   -3.4172    3.0151    2.5928 C   0  0  0  0  0  0  0  0  0  0  0  0
    0.7182   -0.4975   -1.2568 C   0  0  0  0  0  0  0  0  0  0  0  0
    2.1288   -0.0900   -1.2092 N   0  3  0  0  0  0  0  0  0  0  0  0
    2.7970   -0.7684   -0.0907 C   0  0  0  0  0  0  0  0  0  0  0  0
    2.7876   -0.4583   -2.4695 C   0  0  0  0  0  0  0  0  0  0  0  0
    1.0039    1.9031    0.0027 H   0  0  0  0  0  0  0  0  0  0  0  0
   -0.5459    1.8868   -0.8726 H   0  0  0  0  0  0  0  0  0  0  0  0
   -0.5289    1.8773    0.9072 H   0  0  0  0  0  0  0  0  0  0  0  0
   -1.9862   -0.1019   -0.8214 H   0  0  0  0  0  0  0  0  0  0  0  0
   -1.4207   -1.6194   -0.0826 H   0  0  0  0  0  0  0  0  0  0  0  0
   -2.1495   -2.8057    1.1822 H   0  0  0  0  0  0  0  0  0  0  0  0
   -1.9887   -4.3217    3.1136 H   0  0  0  0  0  0  0  0  0  0  0  0
   -1.7393   -3.4171    5.3849 H   0  0  0  0  0  0  0  0  0  0  0  0
   -1.6473   -0.9773    5.7407 H   0  0  0  0  0  0  0  0  0  0  0  0
   -3.5491    0.9277   -0.6408 H   0  0  0  0  0  0  0  0  0  0  0  0
   -4.7605    3.0644   -0.4926 H   0  0  0  0  0  0  0  0  0  0  0  0
   -4.6745    4.4002    1.5683 H   0  0  0  0  0  0  0  0  0  0  0  0
   -3.3801    3.6038    3.4974 H   0  0  0  0  0  0  0  0  0  0  0  0
    0.6556   -1.5845   -1.3079 H   0  0  0  0  0  0  0  0  0  0  0  0
    0.2444   -0.0644   -2.1377 H   0  0  0  0  0  0  0  0  0  0  0  0
    3.8437   -0.4661   -0.0555 H   0  0  0  0  0  0  0  0  0  0  0  0
    2.3081   -0.4951    0.8443 H   0  0  0  0  0  0  0  0  0  0  0  0
    2.7352   -1.8476   -0.2312 H   0  0  0  0  0  0  0  0  0  0  0  0
    2.2918    0.0452   -3.2994 H   0  0  0  0  0  0  0  0  0  0  0  0
    3.8342   -0.1559   -2.4342 H   0  0  0  0  0  0  0  0  0  0  0  0
    2.7258   -1.5374   -2.6099 H   0  0  0  0  0  0  0  0  0  0  0  0
    2.1860    0.9090   -1.0792 H   0  0  0  0  0  0  0  0  0  0  0  0
  1  2  1  0  0  0  0
  1 23  1  0  0  0  0
  1 24  1  0  0  0  0
  1 25  1  0  0  0  0
  2  3  1  1  0  0  0
  2  4  1  0  0  0  0
  2 19  1  0  0  0  0
  4  5  1  0  0  0  0
  4 26  1  0  0  0  0
  4 27  1  0  0  0  0
  5 14  1  0  0  0  0
  5  6  1  0  0  0  0
  6 11  2  0  0  0  0
  6  7  1  0  0  0  0
  7  8  2  0  0  0  0
  7 28  1  0  0  0  0
  8  9  1  0  0  0  0
  8 29  1  0  0  0  0
  9 10  2  0  0  0  0
  9 30  1  0  0  0  0
 10 11  1  0  0  0  0
 10 31  1  0  0  0  0
 11 12  1  0  0  0  0
 12 13  1  0  0  0  0
 13 18  2  0  0  0  0
 13 14  1  0  0  0  0
 14 15  2  0  0  0  0
 15 16  1  0  0  0  0
 15 32  1  0  0  0  0
 16 17  2  0  0  0  0
 16 33  1  0  0  0  0
 17 18  1  0  0  0  0
 17 34  1  0  0  0  0
 18 35  1  0  0  0  0
 19 20  1  0  0  0  0
 19 36  1  0  0  0  0
 19 37  1  0  0  0  0
 20 21  1  0  0  0  0
 20 22  1  0  0  0  0
 20 44  1  0  0  0  0
 21 38  1  0  0  0  0
 21 39  1  0  0  0  0
 21 40  1  0  0  0  0
 22 41  1  0  0  0  0
 22 42  1  0  0  0  0
 22 43  1  0  0  0  0
M  CHG  1  20   1
M  END
$$$$
