ZINC13831150
 OpenBabel08292219463D

 68 71  0  0  1  0  0  0  0  0999 V2000
   -0.1257    1.8834   -0.2323 C   0  0  0  0  0  0  0  0  0  0  0  0
    0.0700    0.3660   -0.2302 C   0  0  0  0  0  0  0  0  0  0  0  0
    1.1163   -0.0118    0.8203 C   0  0  0  0  0  0  0  0  0  0  0  0
    1.3120   -1.5293    0.8225 C   0  0  0  0  0  0  0  0  0  0  0  0
    2.4103   -1.8801    1.7328 N   0  3  0  0  0  0  0  0  0  0  0  0
    2.0324   -1.5381    3.1106 C   0  0  0  0  0  0  0  0  0  0  0  0
    3.2270   -1.7670    4.0387 C   0  0  0  0  0  0  0  0  0  0  0  0
    2.8793   -1.2804    5.4470 C   0  0  0  0  0  0  0  0  0  0  0  0
    4.0738   -1.5093    6.3752 C   0  0  0  0  0  0  0  0  0  0  0  0
    2.6798   -3.3213    1.6424 C   0  0  0  0  0  0  0  0  0  0  0  0
    3.1930   -3.6572    0.2407 C   0  0  2  0  0  0  0  0  0  0  0  0
    2.4796   -3.3010   -0.5025 H   0  0  0  0  0  0  0  0  0  0  0  0
    3.3529   -5.1498    0.1086 C   0  0  0  0  0  0  0  0  0  0  0  0
    4.5792   -5.7359    0.3457 C   0  0  0  0  0  0  0  0  0  0  0  0
    4.7383   -7.1079    0.2273 C   0  0  0  0  0  0  0  0  0  0  0  0
    3.6690   -7.9060   -0.1301 C   0  0  0  0  0  0  0  0  0  0  0  0
    2.4241   -7.3302   -0.3730 C   0  0  0  0  0  0  0  0  0  0  0  0
    2.2603   -5.9389   -0.2476 C   0  0  0  0  0  0  0  0  0  0  0  0
    0.8539   -5.5996   -0.5509 C   0  0  0  0  0  0  0  0  0  0  0  0
    0.1743   -4.3823   -0.5776 C   0  0  0  0  0  0  0  0  0  0  0  0
   -1.1663   -4.3477   -0.9000 C   0  0  0  0  0  0  0  0  0  0  0  0
   -1.8488   -5.5170   -1.1998 C   0  0  0  0  0  0  0  0  0  0  0  0
   -1.1932   -6.7322   -1.1788 C   0  0  0  0  0  0  0  0  0  0  0  0
    0.1611   -6.7847   -0.8551 C   0  0  0  0  0  0  0  0  0  0  0  0
    1.1200   -7.9057   -0.7636 C   0  0  0  0  0  0  0  0  0  0  0  0
    0.8500   -9.2192   -0.9823 C   0  0  0  0  0  0  0  0  0  0  0  0
    1.8107  -10.2471   -0.5588 C   0  0  0  0  0  0  0  0  0  0  0  0
    2.4215  -10.1639    0.6978 C   0  0  0  0  0  0  0  0  0  0  0  0
    3.3212  -11.1322    1.0882 C   0  0  0  0  0  0  0  0  0  0  0  0
    3.6215  -12.1860    0.2403 C   0  0  0  0  0  0  0  0  0  0  0  0
    3.0213  -12.2750   -1.0054 C   0  0  0  0  0  0  0  0  0  0  0  0
    2.1153  -11.3175   -1.4076 C   0  0  0  0  0  0  0  0  0  0  0  0
    4.7561  -13.4008    0.7409 Cl  0  0  0  0  0  0  0  0  0  0  0  0
   -3.5360   -5.4529   -1.6032 Cl  0  0  0  0  0  0  0  0  0  0  0  0
    6.2894   -7.8266    0.5291 Cl  0  0  0  0  0  0  0  0  0  0  0  0
    4.4560   -3.0224    0.0310 O   0  0  0  0  0  0  0  0  0  0  0  0
    0.8198    2.3713   -0.4693 H   0  0  0  0  0  0  0  0  0  0  0  0
   -0.8711    2.1526   -0.9807 H   0  0  0  0  0  0  0  0  0  0  0  0
   -0.4652    2.2074    0.7515 H   0  0  0  0  0  0  0  0  0  0  0  0
   -0.8754   -0.1220    0.0068 H   0  0  0  0  0  0  0  0  0  0  0  0
    0.4095    0.0420   -1.2140 H   0  0  0  0  0  0  0  0  0  0  0  0
    2.0617    0.4761    0.5833 H   0  0  0  0  0  0  0  0  0  0  0  0
    0.7768    0.3121    1.8041 H   0  0  0  0  0  0  0  0  0  0  0  0
    0.3944   -2.0135    1.1566 H   0  0  0  0  0  0  0  0  0  0  0  0
    1.5541   -1.8658   -0.1856 H   0  0  0  0  0  0  0  0  0  0  0  0
    1.7325   -0.4911    3.1558 H   0  0  0  0  0  0  0  0  0  0  0  0
    1.2010   -2.1682    3.4263 H   0  0  0  0  0  0  0  0  0  0  0  0
    3.4642   -2.8304    4.0700 H   0  0  0  0  0  0  0  0  0  0  0  0
    4.0885   -1.2134    3.6654 H   0  0  0  0  0  0  0  0  0  0  0  0
    2.6420   -0.2170    5.4157 H   0  0  0  0  0  0  0  0  0  0  0  0
    2.0177   -1.8340    5.8203 H   0  0  0  0  0  0  0  0  0  0  0  0
    4.3111   -2.5727    6.4065 H   0  0  0  0  0  0  0  0  0  0  0  0
    4.9354   -0.9557    6.0018 H   0  0  0  0  0  0  0  0  0  0  0  0
    3.8261   -1.1626    7.3784 H   0  0  0  0  0  0  0  0  0  0  0  0
    3.4328   -3.5971    2.3807 H   0  0  0  0  0  0  0  0  0  0  0  0
    1.7614   -3.8755    1.8355 H   0  0  0  0  0  0  0  0  0  0  0  0
    5.4219   -5.1209    0.6253 H   0  0  0  0  0  0  0  0  0  0  0  0
    3.7980   -8.9743   -0.2214 H   0  0  0  0  0  0  0  0  0  0  0  0
    0.6977   -3.4665   -0.3454 H   0  0  0  0  0  0  0  0  0  0  0  0
   -1.6887   -3.4026   -0.9186 H   0  0  0  0  0  0  0  0  0  0  0  0
   -1.7290   -7.6401   -1.4131 H   0  0  0  0  0  0  0  0  0  0  0  0
   -0.0707   -9.5077   -1.4675 H   0  0  0  0  0  0  0  0  0  0  0  0
    2.1886   -9.3429    1.3597 H   0  0  0  0  0  0  0  0  0  0  0  0
    3.7935  -11.0691    2.0574 H   0  0  0  0  0  0  0  0  0  0  0  0
    3.2610  -13.0989   -1.6612 H   0  0  0  0  0  0  0  0  0  0  0  0
    1.6446  -11.3907   -2.3768 H   0  0  0  0  0  0  0  0  0  0  0  0
    5.1409   -3.2926    0.6579 H   0  0  0  0  0  0  0  0  0  0  0  0
    3.2390   -1.3660    1.4738 H   0  0  0  0  0  0  0  0  0  0  0  0
  1  2  1  0  0  0  0
  1 37  1  0  0  0  0
  1 38  1  0  0  0  0
  1 39  1  0  0  0  0
  2  3  1  0  0  0  0
  2 40  1  0  0  0  0
  2 41  1  0  0  0  0
  3  4  1  0  0  0  0
  3 42  1  0  0  0  0
  3 43  1  0  0  0  0
  4  5  1  0  0  0  0
  4 44  1  0  0  0  0
  4 45  1  0  0  0  0
  5  6  1  0  0  0  0
  5 10  1  0  0  0  0
  5 68  1  0  0  0  0
  6  7  1  0  0  0  0
  6 46  1  0  0  0  0
  6 47  1  0  0  0  0
  7  8  1  0  0  0  0
  7 48  1  0  0  0  0
  7 49  1  0  0  0  0
  8  9  1  0  0  0  0
  8 50  1  0  0  0  0
  8 51  1  0  0  0  0
  9 52  1  0  0  0  0
  9 53  1  0  0  0  0
  9 54  1  0  0  0  0
 10 11  1  0  0  0  0
 10 55  1  0  0  0  0
 10 56  1  0  0  0  0
 11 12  1  6  0  0  0
 11 13  1  0  0  0  0
 11 36  1  0  0  0  0
 13 18  2  0  0  0  0
 13 14  1  0  0  0  0
 14 15  2  0  0  0  0
 14 57  1  0  0  0  0
 15 16  1  0  0  0  0
 15 35  1  0  0  0  0
 16 17  2  0  0  0  0
 16 58  1  0  0  0  0
 17 25  1  0  0  0  0
 17 18  1  0  0  0  0
 18 19  1  0  0  0  0
 19 24  2  0  0  0  0
 19 20  1  0  0  0  0
 20 21  2  0  0  0  0
 20 59  1  0  0  0  0
 21 22  1  0  0  0  0
 21 60  1  0  0  0  0
 22 23  2  0  0  0  0
 22 34  1  0  0  0  0
 23 24  1  0  0  0  0
 23 61  1  0  0  0  0
 24 25  1  0  0  0  0
 25 26  2  0  0  0  0
 26 27  1  0  0  0  0
 26 62  1  0  0  0  0
 27 32  2  0  0  0  0
 27 28  1  0  0  0  0
 28 29  2  0  0  0  0
 28 63  1  0  0  0  0
 29 30  1  0  0  0  0
 29 64  1  0  0  0  0
 30 31  2  0  0  0  0
 30 33  1  0  0  0  0
 31 32  1  0  0  0  0
 31 65  1  0  0  0  0
 32 66  1  0  0  0  0
 36 67  1  0  0  0  0
M  CHG  1   5   1
M  END
$$$$
