ZINC00020783
 OpenBabel08292219463D

 40 40  0  0  1  0  0  0  0  0999 V2000
    1.1940    6.3718    2.0548 C   0  0  0  0  0  0  0  0  0  0  0  0
    0.0558    6.5627    1.0504 C   0  0  0  0  0  0  0  0  0  0  0  0
    0.3913    5.8241   -0.2469 C   0  0  1  0  0  0  0  0  0  0  0  0
    1.3591    6.1619   -0.6174 H   0  0  0  0  0  0  0  0  0  0  0  0
    0.4444    4.3416    0.0184 C   0  0  0  0  0  0  0  0  0  0  0  0
   -0.6745    3.6849    0.4970 C   0  0  0  0  0  0  0  0  0  0  0  0
   -0.6306    2.3239    0.7359 C   0  0  0  0  0  0  0  0  0  0  0  0
    0.5350    1.6184    0.5070 C   0  0  0  0  0  0  0  0  0  0  0  0
    1.6588    2.2748    0.0270 C   0  0  0  0  0  0  0  0  0  0  0  0
    1.6106    3.6399   -0.2170 C   0  0  0  0  0  0  0  0  0  0  0  0
    2.8048    1.5821   -0.2043 O   0  0  0  0  0  0  0  0  0  0  0  0
   -0.6858    6.1166   -1.2935 C   0  0  1  0  0  0  0  0  0  0  0  0
   -1.6537    5.7789   -0.9229 H   0  0  0  0  0  0  0  0  0  0  0  0
   -0.7398    7.6218   -1.5628 C   0  0  0  0  0  0  0  0  0  0  0  0
   -0.3504    5.3781   -2.5907 C   0  0  0  0  0  0  0  0  0  0  0  0
   -0.9815    5.2340   -4.9239 C   0  0  0  0  0  0  0  0  0  0  0  0
   -2.6369    4.8612   -3.1966 C   0  0  0  0  0  0  0  0  0  0  0  0
    0.9550    6.8980    2.9790 H   0  0  0  0  0  0  0  0  0  0  0  0
    1.3200    5.3095    2.2637 H   0  0  0  0  0  0  0  0  0  0  0  0
    2.1180    6.7721    1.6374 H   0  0  0  0  0  0  0  0  0  0  0  0
   -0.0701    7.6250    0.8415 H   0  0  0  0  0  0  0  0  0  0  0  0
   -0.8681    6.1625    1.4678 H   0  0  0  0  0  0  0  0  0  0  0  0
   -1.5854    4.2353    0.6804 H   0  0  0  0  0  0  0  0  0  0  0  0
   -1.5070    1.8125    1.1058 H   0  0  0  0  0  0  0  0  0  0  0  0
    0.5699    0.5559    0.6974 H   0  0  0  0  0  0  0  0  0  0  0  0
    2.4841    4.1532   -0.5911 H   0  0  0  0  0  0  0  0  0  0  0  0
    2.8743    1.2244   -1.1000 H   0  0  0  0  0  0  0  0  0  0  0  0
    0.2561    7.9802   -1.8234 H   0  0  0  0  0  0  0  0  0  0  0  0
   -1.4243    7.8189   -2.3879 H   0  0  0  0  0  0  0  0  0  0  0  0
   -1.0896    8.1385   -0.6691 H   0  0  0  0  0  0  0  0  0  0  0  0
    0.5907    5.7555   -2.9908 H   0  0  0  0  0  0  0  0  0  0  0  0
   -0.2570    4.3112   -2.3877 H   0  0  0  0  0  0  0  0  0  0  0  0
   -0.6453    4.1972   -4.9298 H   0  0  0  0  0  0  0  0  0  0  0  0
   -1.8119    5.3507   -5.6202 H   0  0  0  0  0  0  0  0  0  0  0  0
   -0.1602    5.8841   -5.2256 H   0  0  0  0  0  0  0  0  0  0  0  0
   -2.9814    5.2004   -2.2197 H   0  0  0  0  0  0  0  0  0  0  0  0
   -3.4145    5.0416   -3.9389 H   0  0  0  0  0  0  0  0  0  0  0  0
   -2.4161    3.7946   -3.1537 H   0  0  0  0  0  0  0  0  0  0  0  0
   -1.4287    5.6260   -3.5707 N   0  3  0  0  0  0  0  0  0  0  0  0
   -1.6549    6.6276   -3.5713 H   0  0  0  0  0  0  0  0  0  0  0  0
  1  2  1  0  0  0  0
  1 18  1  0  0  0  0
  1 19  1  0  0  0  0
  1 20  1  0  0  0  0
  2  3  1  0  0  0  0
  2 21  1  0  0  0  0
  2 22  1  0  0  0  0
  3  4  1  6  0  0  0
  3  5  1  0  0  0  0
  3 12  1  0  0  0  0
  5 10  2  0  0  0  0
  5  6  1  0  0  0  0
  6  7  2  0  0  0  0
  6 23  1  0  0  0  0
  7  8  1  0  0  0  0
  7 24  1  0  0  0  0
  8  9  2  0  0  0  0
  8 25  1  0  0  0  0
  9 10  1  0  0  0  0
  9 11  1  0  0  0  0
 10 26  1  0  0  0  0
 11 27  1  0  0  0  0
 12 13  1  1  0  0  0
 12 14  1  0  0  0  0
 12 15  1  0  0  0  0
 14 28  1  0  0  0  0
 14 29  1  0  0  0  0
 14 30  1  0  0  0  0
 15 31  1  0  0  0  0
 15 32  1  0  0  0  0
 15 39  1  0  0  0  0
 16 33  1  0  0  0  0
 16 34  1  0  0  0  0
 16 35  1  0  0  0  0
 16 39  1  0  0  0  0
 17 36  1  0  0  0  0
 17 37  1  0  0  0  0
 17 38  1  0  0  0  0
 17 39  1  0  0  0  0
 39 40  1  0  0  0  0
M  CHG  1  39   1
M  END
$$$$
