ZINC00001688
 OpenBabel08292219463D

 17 17  0  0  0  0  0  0  0  0999 V2000
   -0.0168    1.3871    0.0097 C   0  0  0  0  0  0  0  0  0  0  0  0
    1.1646    2.1008    0.0022 C   0  0  0  0  0  0  0  0  0  0  0  0
    2.3809    1.4354   -0.0134 C   0  0  0  0  0  0  0  0  0  0  0  0
    2.4089    0.0328   -0.0213 C   0  0  0  0  0  0  0  0  0  0  0  0
    1.2076   -0.6831   -0.0132 C   0  0  0  0  0  0  0  0  0  0  0  0
    0.0021   -0.0041    0.0020 C   0  0  0  0  0  0  0  0  0  0  0  0
   -1.2015   -0.7185    0.0097 N   0  0  0  0  0  0  0  0  0  0  0  0
    3.6956   -0.6813   -0.0384 C   0  0  0  0  0  0  0  0  0  0  0  0
    3.7163   -1.9046   -0.0452 O   0  0  0  0  0  0  0  0  0  0  0  0
    4.7446   -0.0518   -0.0458 O   0  0  0  0  0  1  0  0  0  0  0  0
    3.5412    2.1390   -0.0216 O   0  0  0  0  0  0  0  0  0  0  0  0
   -0.9609    1.9113    0.0260 H   0  0  0  0  0  0  0  0  0  0  0  0
    1.1416    3.1805    0.0083 H   0  0  0  0  0  0  0  0  0  0  0  0
    1.2208   -1.7630   -0.0195 H   0  0  0  0  0  0  0  0  0  0  0  0
   -2.0473   -0.2438    0.0203 H   0  0  0  0  0  0  0  0  0  0  0  0
   -1.1897   -1.6884    0.0044 H   0  0  0  0  0  0  0  0  0  0  0  0
    3.8865    2.3384    0.8593 H   0  0  0  0  0  0  0  0  0  0  0  0
  1  6  2  0  0  0  0
  1  2  1  0  0  0  0
  1 12  1  0  0  0  0
  2  3  2  0  0  0  0
  2 13  1  0  0  0  0
  3  4  1  0  0  0  0
  3 11  1  0  0  0  0
  4  5  2  0  0  0  0
  4  8  1  0  0  0  0
  5  6  1  0  0  0  0
  5 14  1  0  0  0  0
  6  7  1  0  0  0  0
  7 15  1  0  0  0  0
  7 16  1  0  0  0  0
  8  9  2  0  0  0  0
  8 10  1  0  0  0  0
 11 17  1  0  0  0  0
M  END
$$$$
