ZINC01530907
 OpenBabel08292219463D

 38 39  0  0  1  0  0  0  0  0999 V2000
    0.1229    1.3787   -0.0400 C   0  0  0  0  0  0  0  0  0  0  0  0
    0.0493   -0.0844   -0.0508 N   0  0  0  0  0  0  0  0  0  0  0  0
   -1.2389   -0.8049    0.0034 C   0  0  1  0  0  0  0  0  0  0  0  0
   -2.0591   -0.0872    0.0155 H   0  0  0  0  0  0  0  0  0  0  0  0
   -1.3495   -1.6555   -1.1792 N   0  0  0  0  0  0  0  0  0  0  0  0
   -0.3467   -2.5301   -1.5891 C   0  0  0  0  0  0  0  0  0  0  0  0
   -0.6860   -3.6024   -2.4127 C   0  0  0  0  0  0  0  0  0  0  0  0
    0.2877   -4.4774   -2.8500 C   0  0  0  0  0  0  0  0  0  0  0  0
    1.6077   -4.2962   -2.4745 C   0  0  0  0  0  0  0  0  0  0  0  0
    1.9501   -3.2383   -1.6522 C   0  0  0  0  0  0  0  0  0  0  0  0
    0.9781   -2.3666   -1.2074 C   0  0  0  0  0  0  0  0  0  0  0  0
    1.4149   -1.0392   -0.1321 S   0  0  0  0  0  0  0  0  0  0  0  0
    1.6060   -1.6012    1.1590 O   0  0  0  0  0  0  0  0  0  0  0  0
    2.4144   -0.2785   -0.7965 O   0  0  0  0  0  0  0  0  0  0  0  0
    2.8486   -5.4103   -3.0433 S   0  0  0  0  0  0  0  0  0  0  0  0
    2.6660   -5.5396   -4.4466 O   0  0  0  0  0  0  0  0  0  0  0  0
    4.0755   -4.9781   -2.4713 O   0  0  0  0  0  0  0  0  0  0  0  0
    2.5152   -6.8925   -2.3842 N   0  0  0  0  0  0  0  0  0  0  0  0
   -0.1448   -5.8106   -3.8743 Cl  0  0  0  0  0  0  0  0  0  0  0  0
   -1.2923   -1.6667    1.2664 C   0  0  0  0  0  0  0  0  0  0  0  0
   -2.9356   -2.4203    1.4153 S   0  0  0  0  0  0  0  0  0  0  0  0
   -2.8346   -3.3956    2.9414 C   0  0  0  0  0  0  0  0  0  0  0  0
   -4.1730   -4.0940    3.1899 C   0  0  0  0  0  0  0  0  0  0  0  0
   -4.4644   -4.9398    2.1143 F   0  0  0  0  0  0  0  0  0  0  0  0
   -4.0951   -4.8462    4.3669 F   0  0  0  0  0  0  0  0  0  0  0  0
   -5.1834   -3.1346    3.3157 F   0  0  0  0  0  0  0  0  0  0  0  0
    1.1661    1.6903   -0.0916 H   0  0  0  0  0  0  0  0  0  0  0  0
   -0.4179    1.7761   -0.8989 H   0  0  0  0  0  0  0  0  0  0  0  0
   -0.3246    1.7582    0.8786 H   0  0  0  0  0  0  0  0  0  0  0  0
   -2.1630   -1.6088   -1.7054 H   0  0  0  0  0  0  0  0  0  0  0  0
   -1.7139   -3.7487   -2.7099 H   0  0  0  0  0  0  0  0  0  0  0  0
    2.9793   -3.0946   -1.3582 H   0  0  0  0  0  0  0  0  0  0  0  0
    1.7460   -7.0032   -1.8038 H   0  0  0  0  0  0  0  0  0  0  0  0
    3.0892   -7.6499   -2.5785 H   0  0  0  0  0  0  0  0  0  0  0  0
   -0.5375   -2.4506    1.2036 H   0  0  0  0  0  0  0  0  0  0  0  0
   -1.0976   -1.0440    2.1396 H   0  0  0  0  0  0  0  0  0  0  0  0
   -2.0474   -4.1431    2.8434 H   0  0  0  0  0  0  0  0  0  0  0  0
   -2.6075   -2.7366    3.7794 H   0  0  0  0  0  0  0  0  0  0  0  0
  1  2  1  0  0  0  0
  1 27  1  0  0  0  0
  1 28  1  0  0  0  0
  1 29  1  0  0  0  0
  2 12  1  0  0  0  0
  2  3  1  0  0  0  0
  3  4  1  1  0  0  0
  3  5  1  0  0  0  0
  3 20  1  0  0  0  0
  5  6  1  0  0  0  0
  5 30  1  0  0  0  0
  6 11  2  0  0  0  0
  6  7  1  0  0  0  0
  7  8  2  0  0  0  0
  7 31  1  0  0  0  0
  8  9  1  0  0  0  0
  8 19  1  0  0  0  0
  9 10  2  0  0  0  0
  9 15  1  0  0  0  0
 10 11  1  0  0  0  0
 10 32  1  0  0  0  0
 11 12  1  0  0  0  0
 12 13  2  0  0  0  0
 12 14  2  0  0  0  0
 15 16  2  0  0  0  0
 15 17  2  0  0  0  0
 15 18  1  0  0  0  0
 18 33  1  0  0  0  0
 18 34  1  0  0  0  0
 20 21  1  0  0  0  0
 20 35  1  0  0  0  0
 20 36  1  0  0  0  0
 21 22  1  0  0  0  0
 22 23  1  0  0  0  0
 22 37  1  0  0  0  0
 22 38  1  0  0  0  0
 23 24  1  0  0  0  0
 23 25  1  0  0  0  0
 23 26  1  0  0  0  0
M  END
$$$$
