ZINC03812994
 OpenBabel08292219463D

 35 37  0  0  0  0  0  0  0  0999 V2000
    4.6526   -1.0855    2.9178 C   0  0  0  0  0  0  0  0  0  0  0  0
    4.3753   -0.5355    1.5886 N   0  0  0  0  0  0  0  0  0  0  0  0
    3.3560   -1.1220    0.8546 C   0  0  0  0  0  0  0  0  0  0  0  0
    3.2539   -2.5141    0.8975 C   0  0  0  0  0  0  0  0  0  0  0  0
    2.2648   -3.1677    0.1963 C   0  0  0  0  0  0  0  0  0  0  0  0
    1.3577   -2.4459   -0.5619 C   0  0  0  0  0  0  0  0  0  0  0  0
    1.4438   -1.0742   -0.6171 C   0  0  0  0  0  0  0  0  0  0  0  0
    2.4465   -0.3938    0.0970 C   0  0  0  0  0  0  0  0  0  0  0  0
    2.4800    1.0729   -0.0154 C   0  0  0  0  0  0  0  0  0  0  0  0
    3.5505    1.7781   -0.1213 N   0  0  0  0  0  0  0  0  0  0  0  0
    4.8789    1.1670   -0.1400 C   0  0  0  0  0  0  0  0  0  0  0  0
    5.1216    0.4885    1.1806 C   0  0  0  0  0  0  0  0  0  0  0  0
    6.0207    0.8844    1.8917 O   0  0  0  0  0  0  0  0  0  0  0  0
    1.1854    1.7909    0.0004 C   0  0  0  0  0  0  0  0  0  0  0  0
    0.7583    2.4907   -1.1286 C   0  0  0  0  0  0  0  0  0  0  0  0
   -0.4462    3.1620   -1.1061 C   0  0  0  0  0  0  0  0  0  0  0  0
   -1.2376    3.1345    0.0292 C   0  0  0  0  0  0  0  0  0  0  0  0
   -0.8227    2.4435    1.1521 C   0  0  0  0  0  0  0  0  0  0  0  0
    0.3856    1.7705    1.1456 C   0  0  0  0  0  0  0  0  0  0  0  0
    0.7913    1.0959    2.2435 F   0  0  0  0  0  0  0  0  0  0  0  0
    0.2953   -3.1511   -1.3136 N   0  0  0  0  0  4  0  0  0  0  0  0
    0.2189   -4.3658   -1.2653 O   0  0  0  0  0  0  0  0  0  0  0  0
   -0.5025   -2.5168   -1.9804 O   0  5  0  0  0  0  0  0  0  0  0  0
    5.4716   -0.5315    3.3766 H   0  0  0  0  0  0  0  0  0  0  0  0
    3.7618   -0.9989    3.5400 H   0  0  0  0  0  0  0  0  0  0  0  0
    4.9308   -2.1354    2.8258 H   0  0  0  0  0  0  0  0  0  0  0  0
    3.9577   -3.0840    1.4860 H   0  0  0  0  0  0  0  0  0  0  0  0
    2.1965   -4.2447    0.2375 H   0  0  0  0  0  0  0  0  0  0  0  0
    0.7340   -0.5164   -1.2099 H   0  0  0  0  0  0  0  0  0  0  0  0
    4.9313    0.4320   -0.9432 H   0  0  0  0  0  0  0  0  0  0  0  0
    5.6330    1.9375   -0.3005 H   0  0  0  0  0  0  0  0  0  0  0  0
    1.3720    2.5103   -2.0171 H   0  0  0  0  0  0  0  0  0  0  0  0
   -0.7748    3.7075   -1.9784 H   0  0  0  0  0  0  0  0  0  0  0  0
   -2.1817    3.6588    0.0391 H   0  0  0  0  0  0  0  0  0  0  0  0
   -1.4429    2.4293    2.0362 H   0  0  0  0  0  0  0  0  0  0  0  0
  1  2  1  0  0  0  0
  1 24  1  0  0  0  0
  1 25  1  0  0  0  0
  1 26  1  0  0  0  0
  2 12  1  0  0  0  0
  2  3  1  0  0  0  0
  3  8  2  0  0  0  0
  3  4  1  0  0  0  0
  4  5  2  0  0  0  0
  4 27  1  0  0  0  0
  5  6  1  0  0  0  0
  5 28  1  0  0  0  0
  6  7  2  0  0  0  0
  6 21  1  0  0  0  0
  7  8  1  0  0  0  0
  7 29  1  0  0  0  0
  8  9  1  0  0  0  0
  9 10  2  0  0  0  0
  9 14  1  0  0  0  0
 10 11  1  0  0  0  0
 11 12  1  0  0  0  0
 11 30  1  0  0  0  0
 11 31  1  0  0  0  0
 12 13  2  0  0  0  0
 14 19  2  0  0  0  0
 14 15  1  0  0  0  0
 15 16  2  0  0  0  0
 15 32  1  0  0  0  0
 16 17  1  0  0  0  0
 16 33  1  0  0  0  0
 17 18  2  0  0  0  0
 17 34  1  0  0  0  0
 18 19  1  0  0  0  0
 18 35  1  0  0  0  0
 19 20  1  0  0  0  0
 21 22  2  0  0  0  0
 21 23  1  0  0  0  0
M  CHG  1  23  -1
M  END
$$$$
