ZINC01530599
 OpenBabel08292219463D

 29 29  0  0  0  0  0  0  0  0999 V2000
   -0.0187    1.5258    0.0104 C   0  0  0  0  0  0  0  0  0  0  0  0
    0.0021   -0.0041    0.0020 C   0  0  0  0  0  0  0  0  0  0  0  0
   -1.4333   -0.5336    0.0129 C   0  0  0  0  0  0  0  0  0  0  0  0
   -1.4134   -1.9985    0.0048 N   0  0  0  0  0  0  0  0  0  0  0  0
   -2.5934   -2.7013    0.0123 C   0  0  0  0  0  0  0  0  0  0  0  0
   -3.7723   -2.0418    0.0271 O   0  5  0  0  0  0  0  0  0  0  0  0
   -2.5757   -4.0022    0.0052 N   0  0  0  0  0  0  0  0  0  0  0  0
   -3.9984   -4.8496    0.0142 S   0  0  0  0  0  0  0  0  0  0  0  0
   -4.6173   -4.5909    1.2669 O   0  0  0  0  0  0  0  0  0  0  0  0
   -4.6411   -4.5775   -1.2236 O   0  0  0  0  0  0  0  0  0  0  0  0
   -3.5848   -6.5623    0.0010 C   0  0  0  0  0  0  0  0  0  0  0  0
   -3.4284   -7.2261   -1.2014 C   0  0  0  0  0  0  0  0  0  0  0  0
   -3.1039   -8.5696   -1.2124 C   0  0  0  0  0  0  0  0  0  0  0  0
   -2.9356   -9.2500   -0.0196 C   0  0  0  0  0  0  0  0  0  0  0  0
   -3.0922   -8.5851    1.1835 C   0  0  0  0  0  0  0  0  0  0  0  0
   -3.4111   -7.2403    1.1932 C   0  0  0  0  0  0  0  0  0  0  0  0
   -2.5285  -10.9376   -0.0326 Cl  0  0  0  0  0  0  0  0  0  0  0  0
    1.0039    1.9031    0.0027 H   0  0  0  0  0  0  0  0  0  0  0  0
   -0.5459    1.8868   -0.8726 H   0  0  0  0  0  0  0  0  0  0  0  0
   -0.5289    1.8773    0.9072 H   0  0  0  0  0  0  0  0  0  0  0  0
    0.5123   -0.3556   -0.8948 H   0  0  0  0  0  0  0  0  0  0  0  0
    0.5293   -0.3651    0.8851 H   0  0  0  0  0  0  0  0  0  0  0  0
   -1.9435   -0.1821    0.9097 H   0  0  0  0  0  0  0  0  0  0  0  0
   -1.9605   -0.1726   -0.8702 H   0  0  0  0  0  0  0  0  0  0  0  0
   -0.5669   -2.4720   -0.0058 H   0  0  0  0  0  0  0  0  0  0  0  0
   -3.5602   -6.6949   -2.1325 H   0  0  0  0  0  0  0  0  0  0  0  0
   -2.9822   -9.0882   -2.1519 H   0  0  0  0  0  0  0  0  0  0  0  0
   -2.9612   -9.1159    2.1150 H   0  0  0  0  0  0  0  0  0  0  0  0
   -3.5287   -6.7200    2.1323 H   0  0  0  0  0  0  0  0  0  0  0  0
  1  2  1  0  0  0  0
  1 18  1  0  0  0  0
  1 19  1  0  0  0  0
  1 20  1  0  0  0  0
  2  3  1  0  0  0  0
  2 21  1  0  0  0  0
  2 22  1  0  0  0  0
  3  4  1  0  0  0  0
  3 23  1  0  0  0  0
  3 24  1  0  0  0  0
  4  5  1  0  0  0  0
  4 25  1  0  0  0  0
  5  6  1  0  0  0  0
  5  7  2  0  0  0  0
  7  8  1  0  0  0  0
  8  9  2  0  0  0  0
  8 10  2  0  0  0  0
  8 11  1  0  0  0  0
 11 16  2  0  0  0  0
 11 12  1  0  0  0  0
 12 13  2  0  0  0  0
 12 26  1  0  0  0  0
 13 14  1  0  0  0  0
 13 27  1  0  0  0  0
 14 15  2  0  0  0  0
 14 17  1  0  0  0  0
 15 16  1  0  0  0  0
 15 28  1  0  0  0  0
 16 29  1  0  0  0  0
M  CHG  1   6  -1
M  END
$$$$
