ZINC31356870
 OpenBabel08292219463D

 73 75  0  0  1  0  0  0  0  0999 V2000
   -0.2768    0.9131   -0.1144 C   0  0  0  0  0  0  0  0  0  0  0  0
    0.0766   -0.5716   -0.0062 C   0  0  2  0  0  0  0  0  0  0  0  0
    0.6700   -0.8678   -0.8712 H   0  0  0  0  0  0  0  0  0  0  0  0
   -1.1897   -1.3875    0.0375 C   0  0  0  0  0  0  0  0  0  0  0  0
   -1.4220   -2.2863   -0.8868 C   0  0  0  0  0  0  0  0  0  0  0  0
   -2.6883   -3.1022   -0.8431 C   0  0  2  0  0  0  0  0  0  0  0  0
   -3.2817   -2.8060    0.0219 H   0  0  0  0  0  0  0  0  0  0  0  0
   -2.3349   -4.5869   -0.7349 C   0  0  0  0  0  0  0  0  0  0  0  0
   -3.4944   -2.8616   -2.1211 C   0  0  0  0  0  0  0  0  0  0  0  0
   -4.7800   -3.6900   -2.0767 C   0  0  0  0  0  0  0  0  0  0  0  0
   -3.8478   -1.3769   -2.2293 C   0  0  0  0  0  0  0  0  0  0  0  0
    0.8827   -0.8122    1.2718 C   0  0  1  0  0  0  0  0  0  0  0  0
    0.2964   -0.5317    2.1468 H   0  0  0  0  0  0  0  0  0  0  0  0
    1.3128   -2.2994    1.3655 C   0  0  0  0  0  0  0  0  0  0  0  0
    2.8636   -2.2994    1.4782 C   0  0  0  0  0  0  0  0  0  0  0  0
    3.1604   -0.9133    2.0549 C   0  0  2  0  0  0  0  0  0  0  0  0
    2.9173   -0.8769    3.1168 H   0  0  0  0  0  0  0  0  0  0  0  0
    2.1829   -0.0244    1.2324 C   0  0  2  0  0  0  0  0  0  0  0  0
    2.2015    1.3600    1.8373 C   0  0  0  0  0  0  0  0  0  0  0  0
    3.5883    1.9665    1.5650 C   0  0  0  0  0  0  0  0  0  0  0  0
    4.7064    1.1167    2.1657 C   0  0  0  0  0  0  0  0  0  0  0  0
    4.5320   -0.3598    1.8060 C   0  0  0  0  0  0  0  0  0  0  0  0
    5.5192   -1.0988    1.3001 C   0  0  0  0  0  0  0  0  0  0  0  0
    6.8394   -0.5044    1.0783 C   0  0  0  0  0  0  0  0  0  0  0  0
    7.8385   -1.2523    0.5663 C   0  0  0  0  0  0  0  0  0  0  0  0
    9.2201   -0.6765    0.3277 C   0  0  0  0  0  0  0  0  0  0  0  0
    9.6812   -1.0926   -1.0728 C   0  0  2  0  0  0  0  0  0  0  0  0
    9.0062   -0.6700   -1.8170 H   0  0  0  0  0  0  0  0  0  0  0  0
    9.6751   -2.6173   -1.1886 C   0  0  0  0  0  0  0  0  0  0  0  0
    8.2372   -3.1388   -1.1015 C   0  0  0  0  0  0  0  0  0  0  0  0
    7.6406   -2.6745    0.2165 C   0  0  0  0  0  0  0  0  0  0  0  0
    6.9710   -3.5041    1.0166 C   0  0  0  0  0  0  0  0  0  0  0  0
   11.0050   -0.6054   -1.3013 O   0  0  0  0  0  0  0  0  0  0  0  0
    2.6778    0.0616   -0.2128 C   0  0  0  0  0  0  0  0  0  0  0  0
    0.6390    1.5032   -0.1460 H   0  0  0  0  0  0  0  0  0  0  0  0
   -0.8511    1.0845   -1.0249 H   0  0  0  0  0  0  0  0  0  0  0  0
   -0.8702    1.2093    0.7506 H   0  0  0  0  0  0  0  0  0  0  0  0
   -1.9056   -1.2312    0.8308 H   0  0  0  0  0  0  0  0  0  0  0  0
   -0.7061   -2.4425   -1.6802 H   0  0  0  0  0  0  0  0  0  0  0  0
   -1.7606   -4.7582    0.1755 H   0  0  0  0  0  0  0  0  0  0  0  0
   -3.2508   -5.1770   -0.7033 H   0  0  0  0  0  0  0  0  0  0  0  0
   -1.7415   -4.8831   -1.5999 H   0  0  0  0  0  0  0  0  0  0  0  0
   -2.9010   -3.1578   -2.9861 H   0  0  0  0  0  0  0  0  0  0  0  0
   -5.3734   -3.3938   -1.2117 H   0  0  0  0  0  0  0  0  0  0  0  0
   -5.3542   -3.5186   -2.9872 H   0  0  0  0  0  0  0  0  0  0  0  0
   -4.5282   -4.7477   -1.9997 H   0  0  0  0  0  0  0  0  0  0  0  0
   -2.9319   -0.7868   -2.2609 H   0  0  0  0  0  0  0  0  0  0  0  0
   -4.4220   -1.2055   -3.1398 H   0  0  0  0  0  0  0  0  0  0  0  0
   -4.4412   -1.0807   -1.3643 H   0  0  0  0  0  0  0  0  0  0  0  0
    0.8732   -2.7612    2.2496 H   0  0  0  0  0  0  0  0  0  0  0  0
    1.0027   -2.8361    0.4689 H   0  0  0  0  0  0  0  0  0  0  0  0
    3.2015   -3.0812    2.1585 H   0  0  0  0  0  0  0  0  0  0  0  0
    3.3223   -2.4155    0.4963 H   0  0  0  0  0  0  0  0  0  0  0  0
    1.4308    1.9763    1.3745 H   0  0  0  0  0  0  0  0  0  0  0  0
    2.0299    1.2965    2.9118 H   0  0  0  0  0  0  0  0  0  0  0  0
    3.7383    2.0409    0.4879 H   0  0  0  0  0  0  0  0  0  0  0  0
    3.6301    2.9660    1.9980 H   0  0  0  0  0  0  0  0  0  0  0  0
    5.6665    1.4672    1.7871 H   0  0  0  0  0  0  0  0  0  0  0  0
    4.6906    1.2178    3.2509 H   0  0  0  0  0  0  0  0  0  0  0  0
    5.3457   -2.1359    1.0538 H   0  0  0  0  0  0  0  0  0  0  0  0
    7.0129    0.5327    1.3246 H   0  0  0  0  0  0  0  0  0  0  0  0
    9.1810    0.4109    0.3935 H   0  0  0  0  0  0  0  0  0  0  0  0
    9.9137   -1.0652    1.0733 H   0  0  0  0  0  0  0  0  0  0  0  0
   10.1094   -2.9099   -2.1446 H   0  0  0  0  0  0  0  0  0  0  0  0
   10.2652   -3.0446   -0.3778 H   0  0  0  0  0  0  0  0  0  0  0  0
    7.6525   -2.7440   -1.9324 H   0  0  0  0  0  0  0  0  0  0  0  0
    8.2388   -4.2282   -1.1380 H   0  0  0  0  0  0  0  0  0  0  0  0
    6.5576   -3.1416    1.9462 H   0  0  0  0  0  0  0  0  0  0  0  0
    6.8418   -4.5387    0.7353 H   0  0  0  0  0  0  0  0  0  0  0  0
   11.0847    0.3568   -1.2483 H   0  0  0  0  0  0  0  0  0  0  0  0
    2.0012    0.6902   -0.7918 H   0  0  0  0  0  0  0  0  0  0  0  0
    3.6784    0.4936   -0.2292 H   0  0  0  0  0  0  0  0  0  0  0  0
    2.7064   -0.9377   -0.6472 H   0  0  0  0  0  0  0  0  0  0  0  0
  1  2  1  0  0  0  0
  1 35  1  0  0  0  0
  1 36  1  0  0  0  0
  1 37  1  0  0  0  0
  2  3  1  6  0  0  0
  2  4  1  0  0  0  0
  2 12  1  0  0  0  0
  4  5  2  0  0  0  0
  4 38  1  0  0  0  0
  5  6  1  0  0  0  0
  5 39  1  0  0  0  0
  6  7  1  1  0  0  0
  6  8  1  0  0  0  0
  6  9  1  0  0  0  0
  8 40  1  0  0  0  0
  8 41  1  0  0  0  0
  8 42  1  0  0  0  0
  9 10  1  0  0  0  0
  9 11  1  0  0  0  0
  9 43  1  0  0  0  0
 10 44  1  0  0  0  0
 10 45  1  0  0  0  0
 10 46  1  0  0  0  0
 11 47  1  0  0  0  0
 11 48  1  0  0  0  0
 11 49  1  0  0  0  0
 12 13  1  1  0  0  0
 12 18  1  0  0  0  0
 12 14  1  0  0  0  0
 14 15  1  0  0  0  0
 14 50  1  0  0  0  0
 14 51  1  0  0  0  0
 15 16  1  0  0  0  0
 15 52  1  0  0  0  0
 15 53  1  0  0  0  0
 16 17  1  1  0  0  0
 16 22  1  0  0  0  0
 16 18  1  0  0  0  0
 18 19  1  0  0  0  0
 18 34  1  6  0  0  0
 19 20  1  0  0  0  0
 19 54  1  0  0  0  0
 19 55  1  0  0  0  0
 20 21  1  0  0  0  0
 20 56  1  0  0  0  0
 20 57  1  0  0  0  0
 21 22  1  0  0  0  0
 21 58  1  0  0  0  0
 21 59  1  0  0  0  0
 22 23  2  0  0  0  0
 23 24  1  0  0  0  0
 23 60  1  0  0  0  0
 24 25  2  0  0  0  0
 24 61  1  0  0  0  0
 25 31  1  0  0  0  0
 25 26  1  0  0  0  0
 26 27  1  0  0  0  0
 26 62  1  0  0  0  0
 26 63  1  0  0  0  0
 27 28  1  6  0  0  0
 27 29  1  0  0  0  0
 27 33  1  0  0  0  0
 29 30  1  0  0  0  0
 29 64  1  0  0  0  0
 29 65  1  0  0  0  0
 30 31  1  0  0  0  0
 30 66  1  0  0  0  0
 30 67  1  0  0  0  0
 31 32  2  0  0  0  0
 32 68  1  0  0  0  0
 32 69  1  0  0  0  0
 33 70  1  0  0  0  0
 34 71  1  0  0  0  0
 34 72  1  0  0  0  0
 34 73  1  0  0  0  0
M  END
$$$$
