ZINC03784182
 OpenBabel08292219463D

 58 63  0  0  1  0  0  0  0  0999 V2000
   -0.0173    1.4248    0.0099 C   0  0  0  0  0  0  0  0  0  0  0  0
    0.0021   -0.0041    0.0020 O   0  0  0  0  0  0  0  0  0  0  0  0
    0.6056   -0.6069   -1.0553 C   0  0  0  0  0  0  0  0  0  0  0  0
    1.1725    0.1642   -2.0617 C   0  0  0  0  0  0  0  0  0  0  0  0
    1.7856   -0.4445   -3.1359 C   0  0  0  0  0  0  0  0  0  0  0  0
    1.8362   -1.8361   -3.2114 C   0  0  0  0  0  0  0  0  0  0  0  0
    1.2662   -2.6074   -2.1996 C   0  0  0  0  0  0  0  0  0  0  0  0
    0.6593   -1.9925   -1.1248 C   0  0  0  0  0  0  0  0  0  0  0  0
    0.0487   -2.8254   -0.0272 C   0  0  1  0  0  0  0  0  0  0  0  0
   -1.4466   -2.5176    0.0747 C   0  0  0  0  0  0  0  0  0  0  0  0
   -2.0665   -3.3631    1.1890 C   0  0  1  0  0  0  0  0  0  0  0  0
   -1.8718   -4.8471    0.8715 C   0  0  0  0  0  0  0  0  0  0  0  0
   -0.3765   -5.1549    0.7695 C   0  0  1  0  0  0  0  0  0  0  0  0
    0.2434   -4.3093   -0.3448 C   0  0  0  0  0  0  0  0  0  0  0  0
    0.3041   -4.8243    2.0993 C   0  0  0  0  0  0  0  0  0  0  0  0
    0.1094   -3.3403    2.4168 C   0  0  2  0  0  0  0  0  0  0  0  0
   -1.3859   -3.0326    2.5188 C   0  0  0  0  0  0  0  0  0  0  0  0
    0.7293   -2.4948    1.3026 C   0  0  0  0  0  0  0  0  0  0  0  0
    2.4944   -2.4940   -4.3656 C   0  0  0  0  0  0  0  0  0  0  0  0
    2.5359   -3.8962   -4.4369 C   0  0  0  0  0  0  0  0  0  0  0  0
    3.1327   -4.5223   -5.4834 C   0  0  0  0  0  0  0  0  0  0  0  0
    3.7196   -3.7646   -6.5151 C   0  0  0  0  0  0  0  0  0  0  0  0
    4.3402   -4.3914   -7.6046 C   0  0  0  0  0  0  0  0  0  0  0  0
    4.9089   -3.6166   -8.6051 C   0  0  0  0  0  0  0  0  0  0  0  0
    4.8662   -2.2111   -8.5314 C   0  0  0  0  0  0  0  0  0  0  0  0
    4.2697   -1.5883   -7.4845 C   0  0  0  0  0  0  0  0  0  0  0  0
    3.6830   -2.3474   -6.4533 C   0  0  0  0  0  0  0  0  0  0  0  0
    3.0572   -1.7215   -5.3656 C   0  0  0  0  0  0  0  0  0  0  0  0
    5.5629   -4.2694   -9.7533 C   0  0  0  0  0  0  0  0  0  0  0  0
    5.6029   -5.4901   -9.8215 O   0  0  0  0  0  0  0  0  0  0  0  0
    6.0657   -3.5906  -10.6379 O   0  0  0  0  0  1  0  0  0  0  0  0
    1.0053    1.8021    0.0021 H   0  0  0  0  0  0  0  0  0  0  0  0
   -0.5445    1.7859   -0.8732 H   0  0  0  0  0  0  0  0  0  0  0  0
   -0.5275    1.7763    0.9067 H   0  0  0  0  0  0  0  0  0  0  0  0
    1.1327    1.2419   -2.0028 H   0  0  0  0  0  0  0  0  0  0  0  0
    2.2260    0.1557   -3.9184 H   0  0  0  0  0  0  0  0  0  0  0  0
    1.3034   -3.6853   -2.2554 H   0  0  0  0  0  0  0  0  0  0  0  0
   -1.5853   -1.4604    0.3009 H   0  0  0  0  0  0  0  0  0  0  0  0
   -1.9314   -2.7531   -0.8727 H   0  0  0  0  0  0  0  0  0  0  0  0
   -3.1317   -3.1439    1.2616 H   0  0  0  0  0  0  0  0  0  0  0  0
   -2.3134   -5.4495    1.6653 H   0  0  0  0  0  0  0  0  0  0  0  0
   -2.3566   -5.0826   -0.0759 H   0  0  0  0  0  0  0  0  0  0  0  0
   -0.2378   -6.2121    0.5433 H   0  0  0  0  0  0  0  0  0  0  0  0
   -0.2415   -4.5449   -1.2921 H   0  0  0  0  0  0  0  0  0  0  0  0
    1.3086   -4.5286   -0.4174 H   0  0  0  0  0  0  0  0  0  0  0  0
   -0.1376   -5.4267    2.8931 H   0  0  0  0  0  0  0  0  0  0  0  0
    1.3693   -5.0436    2.0267 H   0  0  0  0  0  0  0  0  0  0  0  0
    0.5942   -3.1048    3.3642 H   0  0  0  0  0  0  0  0  0  0  0  0
   -1.5246   -1.9753    2.7450 H   0  0  0  0  0  0  0  0  0  0  0  0
   -1.8275   -3.6350    3.3126 H   0  0  0  0  0  0  0  0  0  0  0  0
    1.7945   -2.7140    1.2299 H   0  0  0  0  0  0  0  0  0  0  0  0
    0.5905   -1.4376    1.5288 H   0  0  0  0  0  0  0  0  0  0  0  0
    2.0879   -4.4837   -3.6492 H   0  0  0  0  0  0  0  0  0  0  0  0
    3.1576   -5.6012   -5.5245 H   0  0  0  0  0  0  0  0  0  0  0  0
    4.3758   -5.4691   -7.6645 H   0  0  0  0  0  0  0  0  0  0  0  0
    5.3141   -1.6219   -9.3179 H   0  0  0  0  0  0  0  0  0  0  0  0
    4.2447   -0.5095   -7.4415 H   0  0  0  0  0  0  0  0  0  0  0  0
    3.0181   -0.6438   -5.3073 H   0  0  0  0  0  0  0  0  0  0  0  0
  1  2  1  0  0  0  0
  1 32  1  0  0  0  0
  1 33  1  0  0  0  0
  1 34  1  0  0  0  0
  2  3  1  0  0  0  0
  3  8  2  0  0  0  0
  3  4  1  0  0  0  0
  4  5  2  0  0  0  0
  4 35  1  0  0  0  0
  5  6  1  0  0  0  0
  5 36  1  0  0  0  0
  6  7  2  0  0  0  0
  6 19  1  0  0  0  0
  7  8  1  0  0  0  0
  7 37  1  0  0  0  0
  9  8  1  6  0  0  0
  9 14  1  0  0  0  0
  9 18  1  0  0  0  0
  9 10  1  0  0  0  0
 10 11  1  0  0  0  0
 10 38  1  0  0  0  0
 10 39  1  0  0  0  0
 11 17  1  0  0  0  0
 11 12  1  0  0  0  0
 11 40  1  1  0  0  0
 12 13  1  0  0  0  0
 12 41  1  0  0  0  0
 12 42  1  0  0  0  0
 13 14  1  0  0  0  0
 13 15  1  0  0  0  0
 13 43  1  6  0  0  0
 14 44  1  0  0  0  0
 14 45  1  0  0  0  0
 15 16  1  0  0  0  0
 15 46  1  0  0  0  0
 15 47  1  0  0  0  0
 16 17  1  0  0  0  0
 16 18  1  0  0  0  0
 16 48  1  1  0  0  0
 17 49  1  0  0  0  0
 17 50  1  0  0  0  0
 18 51  1  0  0  0  0
 18 52  1  0  0  0  0
 19 28  2  0  0  0  0
 19 20  1  0  0  0  0
 20 21  2  0  0  0  0
 20 53  1  0  0  0  0
 21 22  1  0  0  0  0
 21 54  1  0  0  0  0
 22 27  2  0  0  0  0
 22 23  1  0  0  0  0
 23 24  2  0  0  0  0
 23 55  1  0  0  0  0
 24 25  1  0  0  0  0
 24 29  1  0  0  0  0
 25 26  2  0  0  0  0
 25 56  1  0  0  0  0
 26 27  1  0  0  0  0
 26 57  1  0  0  0  0
 27 28  1  0  0  0  0
 28 58  1  0  0  0  0
 29 30  2  0  0  0  0
 29 31  1  0  0  0  0
M  END
$$$$
