ZINC00897283
 OpenBabel08292219463D

 18 17  0  0  1  0  0  0  0  0999 V2000
   -0.6717    3.5361   -1.2863 C   0  0  0  0  0  0  0  0  0  0  0  0
   -0.7584    2.0096   -1.2292 C   0  0  0  0  0  0  0  0  0  0  0  0
   -0.0184    1.5028    0.0103 C   0  0  1  0  0  0  0  0  0  0  0  0
    0.0021   -0.0041    0.0020 C   0  0  0  0  0  0  0  0  0  0  0  0
   -0.5475   -0.6728    0.9874 C   0  0  0  0  0  0  0  0  0  0  0  0
   -0.5240   -2.4086    0.9779 Cl  0  0  0  0  0  0  0  0  0  0  0  0
    1.3626    2.0123   -0.0001 C   0  0  0  0  0  0  0  0  0  0  0  0
    2.4640    2.4186   -0.0085 C   0  0  0  0  0  0  0  0  0  0  0  0
   -0.6872    1.9636    1.1860 O   0  0  0  0  0  0  0  0  0  0  0  0
    0.3741    3.8389   -1.3383 H   0  0  0  0  0  0  0  0  0  0  0  0
   -1.1989    3.8972   -2.1694 H   0  0  0  0  0  0  0  0  0  0  0  0
   -1.1286    3.9596   -0.3919 H   0  0  0  0  0  0  0  0  0  0  0  0
   -0.3015    1.5861   -2.1236 H   0  0  0  0  0  0  0  0  0  0  0  0
   -1.8041    1.7067   -1.1772 H   0  0  0  0  0  0  0  0  0  0  0  0
    0.4693   -0.5333   -0.8153 H   0  0  0  0  0  0  0  0  0  0  0  0
   -1.0147   -0.1436    1.8048 H   0  0  0  0  0  0  0  0  0  0  0  0
    3.4491    2.7821   -0.0159 H   0  0  0  0  0  0  0  0  0  0  0  0
   -1.6042    1.6654    1.2593 H   0  0  0  0  0  0  0  0  0  0  0  0
  1  2  1  0  0  0  0
  1 10  1  0  0  0  0
  1 11  1  0  0  0  0
  1 12  1  0  0  0  0
  2  3  1  0  0  0  0
  2 13  1  0  0  0  0
  2 14  1  0  0  0  0
  3  4  1  0  0  0  0
  3  7  1  6  0  0  0
  3  9  1  0  0  0  0
  4  5  2  0  0  0  0
  4 15  1  0  0  0  0
  5  6  1  0  0  0  0
  5 16  1  0  0  0  0
  7  8  3  0  0  0  0
  8 17  1  0  0  0  0
  9 18  1  0  0  0  0
M  END
$$$$
