ZINC08214651
 OpenBabel08292219463D

 11 10  0  0  0  0  0  0  0  0999 V2000
   -0.7330    1.8882    1.2685 C   0  0  0  0  0  0  0  0  0  0  0  0
   -0.0169    1.3948    0.0097 C   0  0  0  0  0  0  0  0  0  0  0  0
    0.0021   -0.0041    0.0020 F   0  0  0  0  0  0  0  0  0  0  0  0
    1.2956    1.8790   -0.0002 F   0  0  0  0  0  0  0  0  0  0  0  0
   -0.6935    1.8582   -1.1237 F   0  0  0  0  0  0  0  0  0  0  0  0
   -2.1684    1.3586    1.2794 C   0  0  0  0  0  0  0  0  0  0  0  0
   -2.1494   -0.0402    1.2717 F   0  0  0  0  0  0  0  0  0  0  0  0
   -2.8232    1.8098    2.4304 F   0  0  0  0  0  0  0  0  0  0  0  0
   -2.8451    1.8221    0.1460 F   0  0  0  0  0  0  0  0  0  0  0  0
   -0.0564    1.4248    2.4019 F   0  0  0  0  0  0  0  0  0  0  0  0
   -0.7520    3.2871    1.2762 F   0  0  0  0  0  0  0  0  0  0  0  0
  1  2  1  0  0  0  0
  1  6  1  0  0  0  0
  1 10  1  0  0  0  0
  1 11  1  0  0  0  0
  2  3  1  0  0  0  0
  2  4  1  0  0  0  0
  2  5  1  0  0  0  0
  6  7  1  0  0  0  0
  6  8  1  0  0  0  0
  6  9  1  0  0  0  0
M  END
$$$$
