ZINC00057204
 OpenBabel08292219463D

 40 42  0  0  0  0  0  0  0  0999 V2000
   -0.0167    1.3781    0.0096 C   0  0  0  0  0  0  0  0  0  0  0  0
    1.1709    2.0855    0.0021 C   0  0  0  0  0  0  0  0  0  0  0  0
    2.3773    1.4107   -0.0130 C   0  0  0  0  0  0  0  0  0  0  0  0
    2.3960    0.0285   -0.0201 C   0  0  0  0  0  0  0  0  0  0  0  0
    1.2084   -0.6789   -0.0117 C   0  0  0  0  0  0  0  0  0  0  0  0
    0.0021   -0.0041    0.0020 C   0  0  0  0  0  0  0  0  0  0  0  0
    3.7112   -0.7071   -0.0376 C   0  0  0  0  0  0  0  0  0  0  0  0
    4.1518   -0.9524    1.3379 N   0  0  0  0  0  0  0  0  0  0  0  0
    3.7528   -2.1823    2.0266 C   0  0  0  0  0  0  0  0  0  0  0  0
    4.7800   -3.2556    1.7736 C   0  0  0  0  0  0  0  0  0  0  0  0
    4.7044   -4.0763    0.7524 N   0  0  0  0  0  4  0  0  0  0  0  0
    5.8500   -4.9997    0.7855 C   0  0  0  0  0  0  0  0  0  0  0  0
    6.6245   -4.5550    2.0435 C   0  0  0  0  0  0  0  0  0  0  0  0
    5.8188   -3.4347    2.5553 N   0  0  0  0  0  0  0  0  0  0  0  0
    4.9524   -0.0136    1.9927 C   0  0  0  0  0  0  0  0  0  0  0  0
    5.3758   -0.2473    3.2949 C   0  0  0  0  0  0  0  0  0  0  0  0
    6.1677    0.6828    3.9392 C   0  0  0  0  0  0  0  0  0  0  0  0
    6.5387    1.8458    3.2896 C   0  0  0  0  0  0  0  0  0  0  0  0
    6.1190    2.0816    1.9933 C   0  0  0  0  0  0  0  0  0  0  0  0
    5.3317    1.1531    1.3411 C   0  0  0  0  0  0  0  0  0  0  0  0
   -0.9591    1.9053    0.0259 H   0  0  0  0  0  0  0  0  0  0  0  0
    1.1563    3.1654    0.0076 H   0  0  0  0  0  0  0  0  0  0  0  0
    3.3051    1.9634   -0.0196 H   0  0  0  0  0  0  0  0  0  0  0  0
    1.2231   -1.7588   -0.0176 H   0  0  0  0  0  0  0  0  0  0  0  0
   -0.9258   -0.5567    0.0082 H   0  0  0  0  0  0  0  0  0  0  0  0
    3.5884   -1.6586   -0.5549 H   0  0  0  0  0  0  0  0  0  0  0  0
    4.4573   -0.1052   -0.5563 H   0  0  0  0  0  0  0  0  0  0  0  0
    3.6819   -1.9924    3.0976 H   0  0  0  0  0  0  0  0  0  0  0  0
    2.7838   -2.5110    1.6510 H   0  0  0  0  0  0  0  0  0  0  0  0
    5.5106   -6.0306    0.8869 H   0  0  0  0  0  0  0  0  0  0  0  0
    6.4651   -4.8820   -0.1067 H   0  0  0  0  0  0  0  0  0  0  0  0
    6.6714   -5.3639    2.7725 H   0  0  0  0  0  0  0  0  0  0  0  0
    7.6259   -4.2154    1.7789 H   0  0  0  0  0  0  0  0  0  0  0  0
    6.0226   -2.9121    3.3467 H   0  0  0  0  0  0  0  0  0  0  0  0
    5.0858   -1.1551    3.8030 H   0  0  0  0  0  0  0  0  0  0  0  0
    6.4973    0.5017    4.9516 H   0  0  0  0  0  0  0  0  0  0  0  0
    7.1575    2.5719    3.7960 H   0  0  0  0  0  0  0  0  0  0  0  0
    6.4105    2.9910    1.4889 H   0  0  0  0  0  0  0  0  0  0  0  0
    5.0079    1.3357    0.3271 H   0  0  0  0  0  0  0  0  0  0  0  0
    4.0037   -4.0749    0.0817 H   0  0  0  0  0  0  0  0  0  0  0  0
  1  6  2  0  0  0  0
  1  2  1  0  0  0  0
  1 21  1  0  0  0  0
  2  3  2  0  0  0  0
  2 22  1  0  0  0  0
  3  4  1  0  0  0  0
  3 23  1  0  0  0  0
  4  5  2  0  0  0  0
  4  7  1  0  0  0  0
  5  6  1  0  0  0  0
  5 24  1  0  0  0  0
  6 25  1  0  0  0  0
  7  8  1  0  0  0  0
  7 26  1  0  0  0  0
  7 27  1  0  0  0  0
  8  9  1  0  0  0  0
  8 15  1  0  0  0  0
  9 10  1  0  0  0  0
  9 28  1  0  0  0  0
  9 29  1  0  0  0  0
 10 14  1  0  0  0  0
 10 11  2  0  0  0  0
 11 12  1  0  0  0  0
 11 40  1  0  0  0  0
 12 13  1  0  0  0  0
 12 30  1  0  0  0  0
 12 31  1  0  0  0  0
 13 14  1  0  0  0  0
 13 32  1  0  0  0  0
 13 33  1  0  0  0  0
 14 34  1  0  0  0  0
 15 20  2  0  0  0  0
 15 16  1  0  0  0  0
 16 17  2  0  0  0  0
 16 35  1  0  0  0  0
 17 18  1  0  0  0  0
 17 36  1  0  0  0  0
 18 19  2  0  0  0  0
 18 37  1  0  0  0  0
 19 20  1  0  0  0  0
 19 38  1  0  0  0  0
 20 39  1  0  0  0  0
M  END
$$$$
