ZINC01530617
 OpenBabel08292219463D

 55 56  0  0  1  0  0  0  0  0999 V2000
    0.4341    0.0036   -1.2915 C   0  0  0  0  0  0  0  0  0  0  0  0
   -0.2876   -1.1042   -0.5216 C   0  0  0  0  0  0  0  0  0  0  0  0
    0.5608   -1.5265    0.6795 C   0  0  0  0  0  0  0  0  0  0  0  0
   -1.5878   -0.6071   -0.0521 N   0  3  0  0  0  0  0  0  0  0  0  0
   -2.3934   -0.1795   -1.2037 C   0  0  0  0  0  0  0  0  0  0  0  0
   -3.6981    0.4477   -0.7086 C   0  0  0  0  0  0  0  0  0  0  0  0
   -4.5584    0.8494   -1.9085 C   0  0  1  0  0  0  0  0  0  0  0  0
   -5.8435    1.4672   -1.4208 C   0  0  0  0  0  0  0  0  0  0  0  0
   -6.0775    1.5958   -0.0645 C   0  0  0  0  0  0  0  0  0  0  0  0
   -7.2563    2.1625    0.3828 C   0  0  0  0  0  0  0  0  0  0  0  0
   -8.2010    2.6010   -0.5262 C   0  0  0  0  0  0  0  0  0  0  0  0
   -7.9666    2.4731   -1.8826 C   0  0  0  0  0  0  0  0  0  0  0  0
   -6.7859    1.9103   -2.3299 C   0  0  0  0  0  0  0  0  0  0  0  0
   -3.8090    1.8485   -2.7518 C   0  0  0  0  0  0  0  0  0  0  0  0
   -4.2458    2.1243   -4.0339 C   0  0  0  0  0  0  0  0  0  0  0  0
   -3.5493    3.0450   -4.8014 C   0  0  0  0  0  0  0  0  0  0  0  0
   -2.4345    3.6566   -4.2481 C   0  0  0  0  0  0  0  0  0  0  0  0
   -2.0576    3.3305   -2.9594 C   0  0  0  0  0  0  0  0  0  0  0  0
   -2.7474    2.4535   -2.2562 N   0  0  0  0  0  0  0  0  0  0  0  0
   -4.8699   -0.3720   -2.7345 C   0  0  0  0  0  0  0  0  0  0  0  0
   -4.5180   -0.4257   -3.8939 O   0  0  0  0  0  0  0  0  0  0  0  0
   -5.5395   -1.4044   -2.1849 N   0  0  0  0  0  0  0  0  0  0  0  0
   -2.2909   -1.6780    0.6668 C   0  0  0  0  0  0  0  0  0  0  0  0
   -1.9964   -3.0212   -0.0040 C   0  0  0  0  0  0  0  0  0  0  0  0
   -1.8114   -1.7173    2.1192 C   0  0  0  0  0  0  0  0  0  0  0  0
    1.3989   -0.3652   -1.6399 H   0  0  0  0  0  0  0  0  0  0  0  0
   -0.1703    0.3045   -2.1472 H   0  0  0  0  0  0  0  0  0  0  0  0
    0.5880    0.8608   -0.6360 H   0  0  0  0  0  0  0  0  0  0  0  0
   -0.4415   -1.9613   -1.1771 H   0  0  0  0  0  0  0  0  0  0  0  0
    0.5906   -0.7151    1.4066 H   0  0  0  0  0  0  0  0  0  0  0  0
    0.1226   -2.4117    1.1406 H   0  0  0  0  0  0  0  0  0  0  0  0
    1.5737   -1.7538    0.3469 H   0  0  0  0  0  0  0  0  0  0  0  0
   -1.8352    0.5542   -1.7852 H   0  0  0  0  0  0  0  0  0  0  0  0
   -2.6198   -1.0429   -1.8294 H   0  0  0  0  0  0  0  0  0  0  0  0
   -4.2402   -0.2750   -0.0986 H   0  0  0  0  0  0  0  0  0  0  0  0
   -3.4728    1.3311   -0.1111 H   0  0  0  0  0  0  0  0  0  0  0  0
   -5.3395    1.2533    0.6457 H   0  0  0  0  0  0  0  0  0  0  0  0
   -7.4395    2.2624    1.4425 H   0  0  0  0  0  0  0  0  0  0  0  0
   -9.1223    3.0431   -0.1768 H   0  0  0  0  0  0  0  0  0  0  0  0
   -8.7048    2.8154   -2.5927 H   0  0  0  0  0  0  0  0  0  0  0  0
   -6.6011    1.8139   -3.3896 H   0  0  0  0  0  0  0  0  0  0  0  0
   -5.1184    1.6285   -4.4328 H   0  0  0  0  0  0  0  0  0  0  0  0
   -3.8672    3.2800   -5.8065 H   0  0  0  0  0  0  0  0  0  0  0  0
   -1.8679    4.3786   -4.8175 H   0  0  0  0  0  0  0  0  0  0  0  0
   -1.1905    3.8024   -2.5213 H   0  0  0  0  0  0  0  0  0  0  0  0
   -5.8209   -1.3614   -1.2576 H   0  0  0  0  0  0  0  0  0  0  0  0
   -5.7400   -2.1905   -2.7166 H   0  0  0  0  0  0  0  0  0  0  0  0
   -3.3639   -1.4876    0.6434 H   0  0  0  0  0  0  0  0  0  0  0  0
   -0.9427   -3.2683    0.1246 H   0  0  0  0  0  0  0  0  0  0  0  0
   -2.6101   -3.7977    0.4527 H   0  0  0  0  0  0  0  0  0  0  0  0
   -2.2268   -2.9545   -1.0673 H   0  0  0  0  0  0  0  0  0  0  0  0
   -2.3145   -0.9362    2.6892 H   0  0  0  0  0  0  0  0  0  0  0  0
   -2.0440   -2.6901    2.5524 H   0  0  0  0  0  0  0  0  0  0  0  0
   -0.7343   -1.5537    2.1508 H   0  0  0  0  0  0  0  0  0  0  0  0
   -1.4445    0.1762    0.5676 H   0  0  0  0  0  0  0  0  0  0  0  0
  1  2  1  0  0  0  0
  1 26  1  0  0  0  0
  1 27  1  0  0  0  0
  1 28  1  0  0  0  0
  2  3  1  0  0  0  0
  2  4  1  0  0  0  0
  2 29  1  0  0  0  0
  3 30  1  0  0  0  0
  3 31  1  0  0  0  0
  3 32  1  0  0  0  0
  4  5  1  0  0  0  0
  4 23  1  0  0  0  0
  4 55  1  0  0  0  0
  5  6  1  0  0  0  0
  5 33  1  0  0  0  0
  5 34  1  0  0  0  0
  6  7  1  0  0  0  0
  6 35  1  0  0  0  0
  6 36  1  0  0  0  0
  7  8  1  0  0  0  0
  7 14  1  0  0  0  0
  7 20  1  6  0  0  0
  8 13  2  0  0  0  0
  8  9  1  0  0  0  0
  9 10  2  0  0  0  0
  9 37  1  0  0  0  0
 10 11  1  0  0  0  0
 10 38  1  0  0  0  0
 11 12  2  0  0  0  0
 11 39  1  0  0  0  0
 12 13  1  0  0  0  0
 12 40  1  0  0  0  0
 13 41  1  0  0  0  0
 14 19  2  0  0  0  0
 14 15  1  0  0  0  0
 15 16  2  0  0  0  0
 15 42  1  0  0  0  0
 16 17  1  0  0  0  0
 16 43  1  0  0  0  0
 17 18  2  0  0  0  0
 17 44  1  0  0  0  0
 18 19  1  0  0  0  0
 18 45  1  0  0  0  0
 20 21  2  0  0  0  0
 20 22  1  0  0  0  0
 22 46  1  0  0  0  0
 22 47  1  0  0  0  0
 23 24  1  0  0  0  0
 23 25  1  0  0  0  0
 23 48  1  0  0  0  0
 24 49  1  0  0  0  0
 24 50  1  0  0  0  0
 24 51  1  0  0  0  0
 25 52  1  0  0  0  0
 25 53  1  0  0  0  0
 25 54  1  0  0  0  0
M  CHG  1   4   1
M  END
$$$$
