ZINC13298313
 OpenBabel08292219463D

 14 15  0  0  0  0  0  0  0  0999 V2000
   -0.0156    1.3003    0.0092 C   0  0  0  0  0  0  0  0  0  0  0  0
    1.3142    1.7608   -0.0010 C   0  0  0  0  0  0  0  0  0  0  0  0
    2.1466    0.6305   -0.0151 C   0  0  0  0  0  0  0  0  0  0  0  0
    1.3284   -0.4537   -0.0131 N   0  0  0  0  0  0  0  0  0  0  0  0
    1.6139   -1.3807   -0.0211 H   0  0  0  0  0  0  0  0  0  0  0  0
    0.0021   -0.0041    0.0020 N   0  0  0  0  0  0  0  0  0  0  0  0
    3.4783    0.7987   -0.0265 N   0  0  0  0  0  0  0  0  0  0  0  0
    4.0215    1.9806   -0.0249 C   0  0  0  0  0  0  0  0  0  0  0  0
    3.2972    3.1279   -0.0114 N   0  0  0  0  0  0  0  0  0  0  0  0
    3.7507    3.9854   -0.0108 H   0  0  0  0  0  0  0  0  0  0  0  0
    1.9444    3.0809    0.0000 C   0  0  0  0  0  0  0  0  0  0  0  0
    1.2768    4.0999    0.0116 O   0  0  0  0  0  0  0  0  0  0  0  0
   -0.8995    1.9206    0.0250 H   0  0  0  0  0  0  0  0  0  0  0  0
    5.0991    2.0521   -0.0345 H   0  0  0  0  0  0  0  0  0  0  0  0
  1  6  2  0  0  0  0
  1  2  1  0  0  0  0
  1 13  1  0  0  0  0
  2 11  1  0  0  0  0
  2  3  2  0  0  0  0
  3  4  1  0  0  0  0
  3  7  1  0  0  0  0
  4  5  1  0  0  0  0
  4  6  1  0  0  0  0
  7  8  2  0  0  0  0
  8  9  1  0  0  0  0
  8 14  1  0  0  0  0
  9 10  1  0  0  0  0
  9 11  1  0  0  0  0
 11 12  2  0  0  0  0
M  END
$$$$
