ZINC03798734
 OpenBabel08292219463D

 49 49  0  0  0  0  0  0  0  0999 V2000
    1.1028    0.9261    0.1083 C   0  0  0  0  0  0  0  0  0  0  0  0
    1.0032   -0.5682    0.2767 C   0  0  0  0  0  0  0  0  0  0  0  0
    1.1876   -1.3981   -0.8061 C   0  0  0  0  0  0  0  0  0  0  0  0
    1.0964   -2.7766   -0.6521 C   0  0  0  0  0  0  0  0  0  0  0  0
    0.8188   -3.3254    0.5951 C   0  0  0  0  0  0  0  0  0  0  0  0
    0.6326   -2.5055    1.6846 C   0  0  0  0  0  0  0  0  0  0  0  0
    0.7285   -1.1156    1.5365 C   0  0  0  0  0  0  0  0  0  0  0  0
    0.5364   -0.2361    2.6959 C   0  0  0  0  0  0  0  0  0  0  0  0
    1.4434    0.7355    2.9681 C   0  0  0  0  0  0  0  0  0  0  0  0
    1.2594    1.5782    4.0791 C   0  0  0  0  0  0  0  0  0  0  0  0
    2.1718    2.5555    4.3528 C   0  0  0  0  0  0  0  0  0  0  0  0
    1.9883    3.3953    5.4599 C   0  0  0  0  0  0  0  0  0  0  0  0
    2.9090    4.3814    5.7361 C   0  0  0  0  0  0  0  0  0  0  0  0
    2.7257    5.2202    6.8420 C   0  0  0  0  0  0  0  0  0  0  0  0
    3.6463    6.2063    7.1182 C   0  0  0  0  0  0  0  0  0  0  0  0
    3.5488    6.9440    8.3082 C   0  0  0  0  0  0  0  0  0  0  0  0
    2.6400    6.6115    9.2266 O   0  0  0  0  0  0  0  0  0  0  0  0
    4.3649    7.9776    8.5211 O   0  0  0  0  0  1  0  0  0  0  0  0
    1.5210    5.0439    7.7300 C   0  0  0  0  0  0  0  0  0  0  0  0
    0.0546    1.4020    4.9671 C   0  0  0  0  0  0  0  0  0  0  0  0
    0.3318   -3.1018    3.0356 C   0  0  0  0  0  0  0  0  0  0  0  0
    0.7211   -4.8209    0.7538 C   0  0  0  0  0  0  0  0  0  0  0  0
    1.2788   -3.5903   -1.7235 O   0  0  0  0  0  0  0  0  0  0  0  0
    1.5604   -2.9612   -2.9753 C   0  0  0  0  0  0  0  0  0  0  0  0
    2.1338    1.2418    0.2679 H   0  0  0  0  0  0  0  0  0  0  0  0
    0.7909    1.1997   -0.8996 H   0  0  0  0  0  0  0  0  0  0  0  0
    0.4557    1.4175    0.8349 H   0  0  0  0  0  0  0  0  0  0  0  0
    1.4031   -0.9773   -1.7771 H   0  0  0  0  0  0  0  0  0  0  0  0
   -0.3270   -0.3624    3.3324 H   0  0  0  0  0  0  0  0  0  0  0  0
    2.3068    0.8618    2.3317 H   0  0  0  0  0  0  0  0  0  0  0  0
    3.0351    2.6818    3.7164 H   0  0  0  0  0  0  0  0  0  0  0  0
    1.1250    3.2690    6.0963 H   0  0  0  0  0  0  0  0  0  0  0  0
    3.7723    4.5077    5.0997 H   0  0  0  0  0  0  0  0  0  0  0  0
    4.4434    6.4120    6.4191 H   0  0  0  0  0  0  0  0  0  0  0  0
    1.7868    4.4201    8.5834 H   0  0  0  0  0  0  0  0  0  0  0  0
    1.1843    6.0186    8.0833 H   0  0  0  0  0  0  0  0  0  0  0  0
    0.7205    4.5656    7.1657 H   0  0  0  0  0  0  0  0  0  0  0  0
    0.2928    0.7017    5.7678 H   0  0  0  0  0  0  0  0  0  0  0  0
   -0.2238    2.3642    5.3969 H   0  0  0  0  0  0  0  0  0  0  0  0
   -0.7764    1.0125    4.3790 H   0  0  0  0  0  0  0  0  0  0  0  0
    1.2653   -3.2892    3.5661 H   0  0  0  0  0  0  0  0  0  0  0  0
   -0.2801   -2.4073    3.6112 H   0  0  0  0  0  0  0  0  0  0  0  0
   -0.2075   -4.0402    2.9066 H   0  0  0  0  0  0  0  0  0  0  0  0
    1.7037   -5.2254    0.9967 H   0  0  0  0  0  0  0  0  0  0  0  0
    0.0227   -5.0562    1.5569 H   0  0  0  0  0  0  0  0  0  0  0  0
    0.3663   -5.2627   -0.1773 H   0  0  0  0  0  0  0  0  0  0  0  0
    0.7347   -2.3026   -3.2448 H   0  0  0  0  0  0  0  0  0  0  0  0
    2.4775   -2.3783   -2.8908 H   0  0  0  0  0  0  0  0  0  0  0  0
    1.6837   -3.7230   -3.7451 H   0  0  0  0  0  0  0  0  0  0  0  0
  1  2  1  0  0  0  0
  1 25  1  0  0  0  0
  1 26  1  0  0  0  0
  1 27  1  0  0  0  0
  2  7  2  0  0  0  0
  2  3  1  0  0  0  0
  3  4  2  0  0  0  0
  3 28  1  0  0  0  0
  4  5  1  0  0  0  0
  4 23  1  0  0  0  0
  5  6  2  0  0  0  0
  5 22  1  0  0  0  0
  6  7  1  0  0  0  0
  6 21  1  0  0  0  0
  7  8  1  0  0  0  0
  8  9  2  0  0  0  0
  8 29  1  0  0  0  0
  9 10  1  0  0  0  0
  9 30  1  0  0  0  0
 10 11  2  0  0  0  0
 10 20  1  0  0  0  0
 11 12  1  0  0  0  0
 11 31  1  0  0  0  0
 12 13  2  0  0  0  0
 12 32  1  0  0  0  0
 13 14  1  0  0  0  0
 13 33  1  0  0  0  0
 14 15  2  0  0  0  0
 14 19  1  0  0  0  0
 15 16  1  0  0  0  0
 15 34  1  0  0  0  0
 16 17  2  0  0  0  0
 16 18  1  0  0  0  0
 19 35  1  0  0  0  0
 19 36  1  0  0  0  0
 19 37  1  0  0  0  0
 20 38  1  0  0  0  0
 20 39  1  0  0  0  0
 20 40  1  0  0  0  0
 21 41  1  0  0  0  0
 21 42  1  0  0  0  0
 21 43  1  0  0  0  0
 22 44  1  0  0  0  0
 22 45  1  0  0  0  0
 22 46  1  0  0  0  0
 23 24  1  0  0  0  0
 24 47  1  0  0  0  0
 24 48  1  0  0  0  0
 24 49  1  0  0  0  0
M  END
$$$$
