ZINC35801098
 OpenBabel08292219463D

 57 60  0  0  1  0  0  0  0  0999 V2000
   -0.0187    1.5258    0.0104 C   0  0  0  0  0  0  0  0  0  0  0  0
    0.0021   -0.0041    0.0020 C   0  0  0  0  0  0  0  0  0  0  0  0
    0.7309   -0.5033    1.2229 C   0  0  0  0  0  0  0  0  0  0  0  0
    2.0763   -0.8080    1.1486 C   0  0  0  0  0  0  0  0  0  0  0  0
    2.7497   -1.2669    2.2679 C   0  0  0  0  0  0  0  0  0  0  0  0
    2.0726   -1.4201    3.4636 C   0  0  0  0  0  0  0  0  0  0  0  0
    0.7244   -1.1136    3.5363 C   0  0  0  0  0  0  0  0  0  0  0  0
    0.0554   -0.6513    2.4196 C   0  0  0  0  0  0  0  0  0  0  0  0
   -1.4109   -0.3140    2.5046 C   0  0  0  0  0  0  0  0  0  0  0  0
   -2.2386   -1.5206    2.0572 C   0  0  0  0  0  0  0  0  0  0  0  0
    3.0213   -1.9308    4.5268 C   0  0  0  0  0  0  0  0  0  0  0  0
    4.2351   -2.4864    3.7520 C   0  0  0  0  0  0  0  0  0  0  0  0
    4.1994   -1.6642    2.4463 C   0  0  0  0  0  0  0  0  0  0  0  0
    5.4818   -2.2415    4.4893 N   0  3  0  0  0  0  0  0  0  0  0  0
    6.6004   -2.8846    3.7872 C   0  0  0  0  0  0  0  0  0  0  0  0
    7.8989   -2.6295    4.5551 C   0  0  1  0  0  0  0  0  0  0  0  0
    7.8143   -3.0437    5.5598 H   0  0  0  0  0  0  0  0  0  0  0  0
    9.0465   -3.2893    3.8348 C   0  0  0  0  0  0  0  0  0  0  0  0
    9.8114   -2.5695    2.9613 C   0  0  0  0  0  0  0  0  0  0  0  0
   10.8708   -3.1654    2.2918 C   0  0  0  0  0  0  0  0  0  0  0  0
   11.1724   -4.4990    2.4961 C   0  0  0  0  0  0  0  0  0  0  0  0
   10.4037   -5.2523    3.3846 C   0  0  0  0  0  0  0  0  0  0  0  0
    9.3349   -4.6394    4.0632 C   0  0  0  0  0  0  0  0  0  0  0  0
    8.5371   -5.4365    4.9970 C   0  0  0  0  0  0  0  0  0  0  0  0
    8.8624   -6.7402    5.1784 C   0  0  0  0  0  0  0  0  0  0  0  0
    9.9490   -7.3061    4.4774 C   0  0  0  0  0  0  0  0  0  0  0  0
   10.2246   -8.4800    4.6556 O   0  0  0  0  0  0  0  0  0  0  0  0
   10.6800   -6.5853    3.6089 N   0  0  0  0  0  0  0  0  0  0  0  0
   11.4196   -7.0054    3.1426 H   0  0  0  0  0  0  0  0  0  0  0  0
   12.2119   -5.0738    1.8346 O   0  5  0  0  0  0  0  0  0  0  0  0
    8.1346   -1.2225    4.6383 O   0  0  0  0  0  0  0  0  0  0  0  0
    1.0039    1.9031    0.0027 H   0  0  0  0  0  0  0  0  0  0  0  0
   -0.5459    1.8868   -0.8726 H   0  0  0  0  0  0  0  0  0  0  0  0
   -0.5289    1.8773    0.9072 H   0  0  0  0  0  0  0  0  0  0  0  0
   -1.0205   -0.3814    0.0098 H   0  0  0  0  0  0  0  0  0  0  0  0
    0.5123   -0.3556   -0.8948 H   0  0  0  0  0  0  0  0  0  0  0  0
    2.6045   -0.6881    0.2142 H   0  0  0  0  0  0  0  0  0  0  0  0
    0.1949   -1.2329    4.4700 H   0  0  0  0  0  0  0  0  0  0  0  0
   -1.6662   -0.0597    3.5333 H   0  0  0  0  0  0  0  0  0  0  0  0
   -1.6266    0.5351    1.8561 H   0  0  0  0  0  0  0  0  0  0  0  0
   -1.9833   -1.7749    1.0285 H   0  0  0  0  0  0  0  0  0  0  0  0
   -2.0229   -2.3697    2.7057 H   0  0  0  0  0  0  0  0  0  0  0  0
   -3.2991   -1.2766    2.1187 H   0  0  0  0  0  0  0  0  0  0  0  0
    3.3309   -1.1155    5.1807 H   0  0  0  0  0  0  0  0  0  0  0  0
    2.5481   -2.7231    5.1070 H   0  0  0  0  0  0  0  0  0  0  0  0
    4.1089   -3.5490    3.5444 H   0  0  0  0  0  0  0  0  0  0  0  0
    4.5305   -2.2743    1.6060 H   0  0  0  0  0  0  0  0  0  0  0  0
    4.8257   -0.7771    2.5406 H   0  0  0  0  0  0  0  0  0  0  0  0
    5.6482   -1.2480    4.5481 H   0  0  0  0  0  0  0  0  0  0  0  0
    6.4207   -3.9578    3.7237 H   0  0  0  0  0  0  0  0  0  0  0  0
    6.6851   -2.4704    2.7825 H   0  0  0  0  0  0  0  0  0  0  0  0
    9.5892   -1.5266    2.7898 H   0  0  0  0  0  0  0  0  0  0  0  0
   11.4652   -2.5818    1.6043 H   0  0  0  0  0  0  0  0  0  0  0  0
    7.7077   -4.9955    5.5300 H   0  0  0  0  0  0  0  0  0  0  0  0
    8.2883   -7.3478    5.8621 H   0  0  0  0  0  0  0  0  0  0  0  0
    8.2207   -0.7867    3.7794 H   0  0  0  0  0  0  0  0  0  0  0  0
    5.4035   -2.6249    5.4193 H   0  0  0  0  0  0  0  0  0  0  0  0
  1  2  1  0  0  0  0
  1 32  1  0  0  0  0
  1 33  1  0  0  0  0
  1 34  1  0  0  0  0
  2  3  1  0  0  0  0
  2 35  1  0  0  0  0
  2 36  1  0  0  0  0
  3  8  2  0  0  0  0
  3  4  1  0  0  0  0
  4  5  2  0  0  0  0
  4 37  1  0  0  0  0
  5 13  1  0  0  0  0
  5  6  1  0  0  0  0
  6  7  2  0  0  0  0
  6 11  1  0  0  0  0
  7  8  1  0  0  0  0
  7 38  1  0  0  0  0
  8  9  1  0  0  0  0
  9 10  1  0  0  0  0
  9 39  1  0  0  0  0
  9 40  1  0  0  0  0
 10 41  1  0  0  0  0
 10 42  1  0  0  0  0
 10 43  1  0  0  0  0
 11 12  1  0  0  0  0
 11 44  1  0  0  0  0
 11 45  1  0  0  0  0
 12 13  1  0  0  0  0
 12 14  1  0  0  0  0
 12 46  1  0  0  0  0
 13 47  1  0  0  0  0
 13 48  1  0  0  0  0
 14 15  1  0  0  0  0
 14 49  1  0  0  0  0
 14 57  1  0  0  0  0
 15 16  1  0  0  0  0
 15 50  1  0  0  0  0
 15 51  1  0  0  0  0
 16 17  1  1  0  0  0
 16 18  1  0  0  0  0
 16 31  1  0  0  0  0
 18 23  2  0  0  0  0
 18 19  1  0  0  0  0
 19 20  2  0  0  0  0
 19 52  1  0  0  0  0
 20 21  1  0  0  0  0
 20 53  1  0  0  0  0
 21 22  2  0  0  0  0
 21 30  1  0  0  0  0
 22 28  1  0  0  0  0
 22 23  1  0  0  0  0
 23 24  1  0  0  0  0
 24 25  2  0  0  0  0
 24 54  1  0  0  0  0
 25 26  1  0  0  0  0
 25 55  1  0  0  0  0
 26 27  2  0  0  0  0
 26 28  1  0  0  0  0
 28 29  1  0  0  0  0
 31 56  1  0  0  0  0
M  CHG  2  14   1  30  -1
M  END
$$$$
