ZINC00057278
 OpenBabel08292219463D

 46 47  0  0  1  0  0  0  0  0999 V2000
   -0.0187    1.5258    0.0104 C   0  0  0  0  0  0  0  0  0  0  0  0
    0.0021   -0.0041    0.0020 C   0  0  1  0  0  0  0  0  0  0  0  0
    0.5123   -0.3556   -0.8948 H   0  0  0  0  0  0  0  0  0  0  0  0
    0.7421   -0.5109    1.2415 C   0  0  0  0  0  0  0  0  0  0  0  0
    0.8719   -2.0337    1.1708 C   0  0  0  0  0  0  0  0  0  0  0  0
    1.6008   -2.5330    2.3917 C   0  0  0  0  0  0  0  0  0  0  0  0
    2.9792   -2.6404    2.3768 C   0  0  0  0  0  0  0  0  0  0  0  0
    3.6497   -3.0982    3.4945 C   0  0  0  0  0  0  0  0  0  0  0  0
    2.9388   -3.4498    4.6328 C   0  0  0  0  0  0  0  0  0  0  0  0
    1.5558   -3.3406    4.6454 C   0  0  0  0  0  0  0  0  0  0  0  0
    0.8905   -2.8774    3.5269 C   0  0  0  0  0  0  0  0  0  0  0  0
    3.5960   -3.9008    5.7335 O   0  0  0  0  0  0  0  0  0  0  0  0
   -1.3761   -0.5125    0.0124 N   0  3  0  0  0  0  0  0  0  0  0  0
   -2.0500   -0.1262   -1.2343 C   0  0  0  0  0  0  0  0  0  0  0  0
   -3.4854   -0.6557   -1.2235 C   0  0  0  0  0  0  0  0  0  0  0  0
   -4.1768   -0.2594   -2.5025 C   0  0  0  0  0  0  0  0  0  0  0  0
   -4.8594    0.9408   -2.5743 C   0  0  0  0  0  0  0  0  0  0  0  0
   -5.4952    1.3089   -3.7453 C   0  0  0  0  0  0  0  0  0  0  0  0
   -5.4488    0.4746   -4.8506 C   0  0  0  0  0  0  0  0  0  0  0  0
   -4.7614   -0.7332   -4.7785 C   0  0  0  0  0  0  0  0  0  0  0  0
   -4.1222   -1.0939   -3.6032 C   0  0  0  0  0  0  0  0  0  0  0  0
   -4.7131   -1.5554   -5.8607 O   0  0  0  0  0  0  0  0  0  0  0  0
   -6.0742    0.8350   -6.0032 O   0  0  0  0  0  0  0  0  0  0  0  0
    1.0039    1.9031    0.0027 H   0  0  0  0  0  0  0  0  0  0  0  0
   -0.5459    1.8868   -0.8726 H   0  0  0  0  0  0  0  0  0  0  0  0
   -0.5289    1.8773    0.9072 H   0  0  0  0  0  0  0  0  0  0  0  0
    1.7350   -0.0630    1.2804 H   0  0  0  0  0  0  0  0  0  0  0  0
    0.1838   -0.2350    2.1361 H   0  0  0  0  0  0  0  0  0  0  0  0
   -0.1210   -2.4817    1.1320 H   0  0  0  0  0  0  0  0  0  0  0  0
    1.4302   -2.3096    0.2763 H   0  0  0  0  0  0  0  0  0  0  0  0
    3.5321   -2.3666    1.4904 H   0  0  0  0  0  0  0  0  0  0  0  0
    4.7263   -3.1827    3.4821 H   0  0  0  0  0  0  0  0  0  0  0  0
    1.0002   -3.6137    5.5303 H   0  0  0  0  0  0  0  0  0  0  0  0
   -0.1858   -2.7880    3.5377 H   0  0  0  0  0  0  0  0  0  0  0  0
    3.8546   -3.2028    6.3507 H   0  0  0  0  0  0  0  0  0  0  0  0
   -1.3629   -1.5185    0.0898 H   0  0  0  0  0  0  0  0  0  0  0  0
   -2.0643    0.9605   -1.3179 H   0  0  0  0  0  0  0  0  0  0  0  0
   -1.5132   -0.5489   -2.0836 H   0  0  0  0  0  0  0  0  0  0  0  0
   -3.4711   -1.7424   -1.1399 H   0  0  0  0  0  0  0  0  0  0  0  0
   -4.0222   -0.2330   -0.3742 H   0  0  0  0  0  0  0  0  0  0  0  0
   -4.8962    1.5920   -1.7135 H   0  0  0  0  0  0  0  0  0  0  0  0
   -6.0283    2.2466   -3.7985 H   0  0  0  0  0  0  0  0  0  0  0  0
   -3.5849   -2.0290   -3.5458 H   0  0  0  0  0  0  0  0  0  0  0  0
   -3.9621   -1.3901   -6.4470 H   0  0  0  0  0  0  0  0  0  0  0  0
   -5.5183    1.3426   -6.6102 H   0  0  0  0  0  0  0  0  0  0  0  0
   -1.8730   -0.1212    0.7986 H   0  0  0  0  0  0  0  0  0  0  0  0
  1  2  1  0  0  0  0
  1 24  1  0  0  0  0
  1 25  1  0  0  0  0
  1 26  1  0  0  0  0
  2  3  1  6  0  0  0
  2  4  1  0  0  0  0
  2 13  1  0  0  0  0
  4  5  1  0  0  0  0
  4 27  1  0  0  0  0
  4 28  1  0  0  0  0
  5  6  1  0  0  0  0
  5 29  1  0  0  0  0
  5 30  1  0  0  0  0
  6 11  2  0  0  0  0
  6  7  1  0  0  0  0
  7  8  2  0  0  0  0
  7 31  1  0  0  0  0
  8  9  1  0  0  0  0
  8 32  1  0  0  0  0
  9 10  2  0  0  0  0
  9 12  1  0  0  0  0
 10 11  1  0  0  0  0
 10 33  1  0  0  0  0
 11 34  1  0  0  0  0
 12 35  1  0  0  0  0
 13 14  1  0  0  0  0
 13 36  1  0  0  0  0
 13 46  1  0  0  0  0
 14 15  1  0  0  0  0
 14 37  1  0  0  0  0
 14 38  1  0  0  0  0
 15 16  1  0  0  0  0
 15 39  1  0  0  0  0
 15 40  1  0  0  0  0
 16 21  2  0  0  0  0
 16 17  1  0  0  0  0
 17 18  2  0  0  0  0
 17 41  1  0  0  0  0
 18 19  1  0  0  0  0
 18 42  1  0  0  0  0
 19 20  2  0  0  0  0
 19 23  1  0  0  0  0
 20 21  1  0  0  0  0
 20 22  1  0  0  0  0
 21 43  1  0  0  0  0
 22 44  1  0  0  0  0
 23 45  1  0  0  0  0
M  CHG  1  13   1
M  END
$$$$
