ZINC04102194
 OpenBabel08292219463D

 78 79  0  0  1  0  0  0  0  0999 V2000
   -9.7169    0.5226    5.8037 C   0  0  0  0  0  0  0  0  0  0  0  0
   -9.0415    1.5070    4.8468 C   0  0  2  0  0  0  0  0  0  0  0  0
   -9.0050    1.0747    3.8469 H   0  0  0  0  0  0  0  0  0  0  0  0
   -7.6187    1.7940    5.3307 C   0  0  1  0  0  0  0  0  0  0  0  0
   -7.5199    2.6006    6.0572 H   0  0  0  0  0  0  0  0  0  0  0  0
   -6.6512    0.6137    5.4398 C   0  0  1  0  0  0  0  0  0  0  0  0
   -7.0227   -0.3744    5.1683 H   0  0  0  0  0  0  0  0  0  0  0  0
   -6.5479    1.5946    4.4057 O   0  0  0  0  0  0  0  0  0  0  0  0
   -5.6099    0.6467    6.5603 C   0  0  0  0  0  0  0  0  0  0  0  0
   -4.8313   -0.6703    6.5719 C   0  0  1  0  0  0  0  0  0  0  0  0
   -5.5280   -1.5046    6.6534 H   0  0  0  0  0  0  0  0  0  0  0  0
   -4.0268   -0.8004    5.2759 C   0  0  0  0  0  0  0  0  0  0  0  0
   -3.0743    0.2622    5.1993 O   0  0  0  0  0  0  0  0  0  0  0  0
   -2.1201    0.2681    6.2631 C   0  0  2  0  0  0  0  0  0  0  0  0
   -1.5735   -0.6749    6.2663 H   0  0  0  0  0  0  0  0  0  0  0  0
   -2.8478    0.4410    7.5988 C   0  0  1  0  0  0  0  0  0  0  0  0
   -3.3615    1.4023    7.6120 H   0  0  0  0  0  0  0  0  0  0  0  0
   -3.8700   -0.6877    7.7643 C   0  0  2  0  0  0  0  0  0  0  0  0
   -4.4311   -0.5409    8.6872 H   0  0  0  0  0  0  0  0  0  0  0  0
   -3.1909   -1.9441    7.8126 O   0  0  0  0  0  0  0  0  0  0  0  0
   -1.9015    0.3892    8.6684 O   0  0  0  0  0  0  0  0  0  0  0  0
   -1.1398    1.4256    6.0626 C   0  0  0  0  0  0  0  0  0  0  0  0
   -0.3368    1.1923    4.8088 C   0  0  0  0  0  0  0  0  0  0  0  0
   -0.7240    1.7395    3.6592 C   0  0  0  0  0  0  0  0  0  0  0  0
   -0.0145    1.4133    2.4143 C   0  0  0  0  0  0  0  0  0  0  0  0
    0.9830    0.7198    2.4473 O   0  0  0  0  0  0  0  0  0  0  0  0
   -0.4700    1.8833    1.2359 O   0  0  0  0  0  0  0  0  0  0  0  0
    0.2809    1.5210    0.0471 C   0  0  0  0  0  0  0  0  0  0  0  0
   -0.3825    2.1416   -1.1840 C   0  0  0  0  0  0  0  0  0  0  0  0
    0.4087    1.7599   -2.4366 C   0  0  0  0  0  0  0  0  0  0  0  0
   -0.2547    2.3805   -3.6677 C   0  0  0  0  0  0  0  0  0  0  0  0
    0.5366    1.9988   -4.9204 C   0  0  0  0  0  0  0  0  0  0  0  0
   -0.1269    2.6193   -6.1515 C   0  0  0  0  0  0  0  0  0  0  0  0
    0.6644    2.2376   -7.4041 C   0  0  0  0  0  0  0  0  0  0  0  0
    0.0009    2.8582   -8.6352 C   0  0  0  0  0  0  0  0  0  0  0  0
    0.7803    2.4822   -9.8690 C   0  0  0  0  0  0  0  0  0  0  0  0
    1.7654    1.7891   -9.7735 O   0  0  0  0  0  0  0  0  0  0  0  0
    0.9046    0.3393    4.8569 C   0  0  0  0  0  0  0  0  0  0  0  0
   -9.8403    2.8114    4.8095 C   0  0  2  0  0  0  0  0  0  0  0  0
   -9.8769    3.2438    5.8095 H   0  0  0  0  0  0  0  0  0  0  0  0
  -11.2631    2.5245    4.3256 C   0  0  0  0  0  0  0  0  0  0  0  0
   -9.2095    3.7309    3.9158 O   0  0  0  0  0  0  0  0  0  0  0  0
   -9.7535    0.9549    6.8036 H   0  0  0  0  0  0  0  0  0  0  0  0
  -10.7305    0.3182    5.4589 H   0  0  0  0  0  0  0  0  0  0  0  0
   -9.1478   -0.4067    5.8302 H   0  0  0  0  0  0  0  0  0  0  0  0
   -6.1116    0.7806    7.5187 H   0  0  0  0  0  0  0  0  0  0  0  0
   -4.9211    1.4745    6.3919 H   0  0  0  0  0  0  0  0  0  0  0  0
   -4.7019   -0.7457    4.4219 H   0  0  0  0  0  0  0  0  0  0  0  0
   -3.5052   -1.7575    5.2661 H   0  0  0  0  0  0  0  0  0  0  0  0
   -2.5647   -2.0248    8.5450 H   0  0  0  0  0  0  0  0  0  0  0  0
   -1.2203    1.0741    8.6243 H   0  0  0  0  0  0  0  0  0  0  0  0
   -0.4677    1.4849    6.9187 H   0  0  0  0  0  0  0  0  0  0  0  0
   -1.6942    2.3595    5.9705 H   0  0  0  0  0  0  0  0  0  0  0  0
   -1.5597    2.4234    3.6411 H   0  0  0  0  0  0  0  0  0  0  0  0
    0.2961    0.4361   -0.0564 H   0  0  0  0  0  0  0  0  0  0  0  0
    1.3020    1.8920    0.1354 H   0  0  0  0  0  0  0  0  0  0  0  0
   -1.4037    1.7707   -1.2722 H   0  0  0  0  0  0  0  0  0  0  0  0
   -0.3978    3.2266   -1.0804 H   0  0  0  0  0  0  0  0  0  0  0  0
    1.4299    2.1308   -2.3484 H   0  0  0  0  0  0  0  0  0  0  0  0
    0.4240    0.6749   -2.5402 H   0  0  0  0  0  0  0  0  0  0  0  0
   -1.2759    2.0095   -3.7560 H   0  0  0  0  0  0  0  0  0  0  0  0
   -0.2700    3.4654   -3.5642 H   0  0  0  0  0  0  0  0  0  0  0  0
    1.5577    2.3697   -4.8321 H   0  0  0  0  0  0  0  0  0  0  0  0
    0.5518    0.9138   -5.0239 H   0  0  0  0  0  0  0  0  0  0  0  0
   -1.1480    2.2484   -6.2397 H   0  0  0  0  0  0  0  0  0  0  0  0
   -0.1421    3.7043   -6.0479 H   0  0  0  0  0  0  0  0  0  0  0  0
    1.6855    2.6086   -7.3159 H   0  0  0  0  0  0  0  0  0  0  0  0
    0.6796    1.1527   -7.5077 H   0  0  0  0  0  0  0  0  0  0  0  0
   -1.0202    2.4873   -8.7235 H   0  0  0  0  0  0  0  0  0  0  0  0
   -0.0143    3.9432   -8.5317 H   0  0  0  0  0  0  0  0  0  0  0  0
    1.7599    0.9229    4.5162 H   0  0  0  0  0  0  0  0  0  0  0  0
    1.0769    0.0058    5.8802 H   0  0  0  0  0  0  0  0  0  0  0  0
    0.7751   -0.5277    4.2091 H   0  0  0  0  0  0  0  0  0  0  0  0
  -11.7443    1.8232    5.0073 H   0  0  0  0  0  0  0  0  0  0  0  0
  -11.8322    3.4538    4.2991 H   0  0  0  0  0  0  0  0  0  0  0  0
  -11.2266    2.0922    3.3257 H   0  0  0  0  0  0  0  0  0  0  0  0
   -9.6630    4.5819    3.8424 H   0  0  0  0  0  0  0  0  0  0  0  0
    0.3802    2.9174  -11.0741 O   0  0  0  0  0  1  0  0  0  0  0  0
  1  2  1  0  0  0  0
  1 43  1  0  0  0  0
  1 44  1  0  0  0  0
  1 45  1  0  0  0  0
  2  3  1  6  0  0  0
  2  4  1  0  0  0  0
  2 39  1  0  0  0  0
  4  5  1  1  0  0  0
  4  8  1  0  0  0  0
  4  6  1  0  0  0  0
  6  7  1  6  0  0  0
  6  8  1  0  0  0  0
  6  9  1  0  0  0  0
  9 10  1  0  0  0  0
  9 46  1  0  0  0  0
  9 47  1  0  0  0  0
 10 11  1  1  0  0  0
 10 18  1  0  0  0  0
 10 12  1  0  0  0  0
 12 13  1  0  0  0  0
 12 48  1  0  0  0  0
 12 49  1  0  0  0  0
 13 14  1  0  0  0  0
 14 15  1  1  0  0  0
 14 16  1  0  0  0  0
 14 22  1  0  0  0  0
 16 17  1  1  0  0  0
 16 18  1  0  0  0  0
 16 21  1  0  0  0  0
 18 19  1  1  0  0  0
 18 20  1  0  0  0  0
 20 50  1  0  0  0  0
 21 51  1  0  0  0  0
 22 23  1  0  0  0  0
 22 52  1  0  0  0  0
 22 53  1  0  0  0  0
 23 24  2  0  0  0  0
 23 38  1  0  0  0  0
 24 25  1  0  0  0  0
 24 54  1  0  0  0  0
 25 26  2  0  0  0  0
 25 27  1  0  0  0  0
 27 28  1  0  0  0  0
 28 29  1  0  0  0  0
 28 55  1  0  0  0  0
 28 56  1  0  0  0  0
 29 30  1  0  0  0  0
 29 57  1  0  0  0  0
 29 58  1  0  0  0  0
 30 31  1  0  0  0  0
 30 59  1  0  0  0  0
 30 60  1  0  0  0  0
 31 32  1  0  0  0  0
 31 61  1  0  0  0  0
 31 62  1  0  0  0  0
 32 33  1  0  0  0  0
 32 63  1  0  0  0  0
 32 64  1  0  0  0  0
 33 34  1  0  0  0  0
 33 65  1  0  0  0  0
 33 66  1  0  0  0  0
 34 35  1  0  0  0  0
 34 67  1  0  0  0  0
 34 68  1  0  0  0  0
 35 36  1  0  0  0  0
 35 69  1  0  0  0  0
 35 70  1  0  0  0  0
 36 37  2  0  0  0  0
 36 78  1  0  0  0  0
 38 71  1  0  0  0  0
 38 72  1  0  0  0  0
 38 73  1  0  0  0  0
 39 40  1  1  0  0  0
 39 41  1  0  0  0  0
 39 42  1  0  0  0  0
 41 74  1  0  0  0  0
 41 75  1  0  0  0  0
 41 76  1  0  0  0  0
 42 77  1  0  0  0  0
M  END
$$$$
