ZINC00002176
 OpenBabel08292219463D

 46 47  0  0  1  0  0  0  0  0999 V2000
    0.1202    0.9085    0.3575 C   0  0  0  0  0  0  0  0  0  0  0  0
    0.2368   -0.6157    0.2924 C   0  0  0  0  0  0  0  0  0  0  0  0
    1.0621   -1.1152    1.4800 C   0  0  0  0  0  0  0  0  0  0  0  0
   -1.1605   -1.2368    0.3451 C   0  0  0  0  0  0  0  0  0  0  0  0
    0.8980   -1.0031   -0.9608 N   0  3  0  0  0  0  0  0  0  0  0  0
    2.2395   -0.4068   -1.0114 C   0  0  0  0  0  0  0  0  0  0  0  0
    2.9282   -0.8104   -2.3167 C   0  0  1  0  0  0  0  0  0  0  0  0
    2.3403   -0.4545   -3.1628 H   0  0  0  0  0  0  0  0  0  0  0  0
    4.3254   -0.1893   -2.3694 C   0  0  0  0  0  0  0  0  0  0  0  0
    4.9236   -0.4689   -3.6367 O   0  0  0  0  0  0  0  0  0  0  0  0
    6.1767    0.0159   -3.8486 C   0  0  0  0  0  0  0  0  0  0  0  0
    6.8457   -0.1930   -5.0435 C   0  0  0  0  0  0  0  0  0  0  0  0
    8.0536    0.3213   -5.1390 N   0  0  0  0  0  0  0  0  0  0  0  0
    8.2789    1.0658   -3.6570 S   0  0  0  0  0  0  0  0  0  0  0  0
    6.8127    0.7116   -2.9317 N   0  0  0  0  0  0  0  0  0  0  0  0
    6.2670   -0.9145   -6.0953 N   0  0  0  0  0  0  0  0  0  0  0  0
    5.4657   -0.2377   -7.1273 C   0  0  0  0  0  0  0  0  0  0  0  0
    5.9852   -0.6697   -8.5034 C   0  0  0  0  0  0  0  0  0  0  0  0
    6.0243   -2.0975   -8.5647 O   0  0  0  0  0  0  0  0  0  0  0  0
    6.9148   -2.6997   -7.6223 C   0  0  0  0  0  0  0  0  0  0  0  0
    6.4476   -2.3708   -6.2043 C   0  0  0  0  0  0  0  0  0  0  0  0
    3.0371   -2.2339   -2.3775 O   0  0  0  0  0  0  0  0  0  0  0  0
    1.1156    1.3510    0.3199 H   0  0  0  0  0  0  0  0  0  0  0  0
   -0.4677    1.2643   -0.4886 H   0  0  0  0  0  0  0  0  0  0  0  0
   -0.3704    1.1960    1.2874 H   0  0  0  0  0  0  0  0  0  0  0  0
    0.5715   -0.8277    2.4099 H   0  0  0  0  0  0  0  0  0  0  0  0
    1.1451   -2.2010    1.4337 H   0  0  0  0  0  0  0  0  0  0  0  0
    2.0575   -0.6727    1.4425 H   0  0  0  0  0  0  0  0  0  0  0  0
   -1.7484   -0.8809   -0.5010 H   0  0  0  0  0  0  0  0  0  0  0  0
   -1.0774   -2.3226    0.2988 H   0  0  0  0  0  0  0  0  0  0  0  0
   -1.6510   -0.9493    1.2750 H   0  0  0  0  0  0  0  0  0  0  0  0
    0.9749   -2.0083   -1.0037 H   0  0  0  0  0  0  0  0  0  0  0  0
    2.1565    0.6790   -0.9651 H   0  0  0  0  0  0  0  0  0  0  0  0
    2.8275   -0.7627   -0.1654 H   0  0  0  0  0  0  0  0  0  0  0  0
    4.2489    0.8896   -2.2339 H   0  0  0  0  0  0  0  0  0  0  0  0
    4.9413   -0.6123   -1.5757 H   0  0  0  0  0  0  0  0  0  0  0  0
    4.4185   -0.5224   -7.0244 H   0  0  0  0  0  0  0  0  0  0  0  0
    5.5653    0.8424   -7.0199 H   0  0  0  0  0  0  0  0  0  0  0  0
    5.3204   -0.2900   -9.2792 H   0  0  0  0  0  0  0  0  0  0  0  0
    6.9883   -0.2712   -8.6553 H   0  0  0  0  0  0  0  0  0  0  0  0
    6.9187   -3.7804   -7.7642 H   0  0  0  0  0  0  0  0  0  0  0  0
    7.9213   -2.3085   -7.7711 H   0  0  0  0  0  0  0  0  0  0  0  0
    7.1971   -2.7026   -5.4858 H   0  0  0  0  0  0  0  0  0  0  0  0
    5.5010   -2.8739   -6.0068 H   0  0  0  0  0  0  0  0  0  0  0  0
    3.5486   -2.6205   -1.6536 H   0  0  0  0  0  0  0  0  0  0  0  0
    0.3538   -0.6737   -1.7440 H   0  0  0  0  0  0  0  0  0  0  0  0
  1  2  1  0  0  0  0
  1 23  1  0  0  0  0
  1 24  1  0  0  0  0
  1 25  1  0  0  0  0
  2  3  1  0  0  0  0
  2  4  1  0  0  0  0
  2  5  1  0  0  0  0
  3 26  1  0  0  0  0
  3 27  1  0  0  0  0
  3 28  1  0  0  0  0
  4 29  1  0  0  0  0
  4 30  1  0  0  0  0
  4 31  1  0  0  0  0
  5  6  1  0  0  0  0
  5 32  1  0  0  0  0
  5 46  1  0  0  0  0
  6  7  1  0  0  0  0
  6 33  1  0  0  0  0
  6 34  1  0  0  0  0
  7  8  1  6  0  0  0
  7  9  1  0  0  0  0
  7 22  1  0  0  0  0
  9 10  1  0  0  0  0
  9 35  1  0  0  0  0
  9 36  1  0  0  0  0
 10 11  1  0  0  0  0
 11 15  2  0  0  0  0
 11 12  1  0  0  0  0
 12 13  2  0  0  0  0
 12 16  1  0  0  0  0
 13 14  1  0  0  0  0
 14 15  1  0  0  0  0
 16 21  1  0  0  0  0
 16 17  1  0  0  0  0
 17 18  1  0  0  0  0
 17 37  1  0  0  0  0
 17 38  1  0  0  0  0
 18 19  1  0  0  0  0
 18 39  1  0  0  0  0
 18 40  1  0  0  0  0
 19 20  1  0  0  0  0
 20 21  1  0  0  0  0
 20 41  1  0  0  0  0
 20 42  1  0  0  0  0
 21 43  1  0  0  0  0
 21 44  1  0  0  0  0
 22 45  1  0  0  0  0
M  CHG  1   5   1
M  END
$$$$
