ZINC00968328
 OpenBabel08292219463D

 45 47  0  0  1  0  0  0  0  0999 V2000
   -0.0178    1.4608    0.0101 C   0  0  0  0  0  0  0  0  0  0  0  0
    0.0021   -0.0041    0.0020 N   0  0  0  0  0  0  0  0  0  0  0  0
    0.0241   -0.7433    1.2666 C   0  0  0  0  0  0  0  0  0  0  0  0
   -1.4105   -1.0203    1.7205 C   0  0  0  0  0  0  0  0  0  0  0  0
   -2.0465   -1.8923    0.7840 O   0  0  0  0  0  0  0  0  0  0  0  0
   -3.3348   -2.2400    1.0412 C   0  0  0  0  0  0  0  0  0  0  0  0
   -3.9756   -1.7474    2.1688 C   0  0  0  0  0  0  0  0  0  0  0  0
   -5.2854   -2.1021    2.4278 C   0  0  0  0  0  0  0  0  0  0  0  0
   -5.9575   -2.9475    1.5646 C   0  0  0  0  0  0  0  0  0  0  0  0
   -5.3210   -3.4402    0.4404 C   0  0  0  0  0  0  0  0  0  0  0  0
   -4.0133   -3.0837    0.1736 C   0  0  0  0  0  0  0  0  0  0  0  0
   -7.3862   -3.3331    1.8499 C   0  0  0  0  0  0  0  0  0  0  0  0
   -8.3282   -2.3252    1.1885 C   0  0  1  0  0  0  0  0  0  0  0  0
   -8.1156   -2.2277    0.1239 H   0  0  0  0  0  0  0  0  0  0  0  0
   -9.7865   -2.6882    1.4311 C   0  0  0  0  0  0  0  0  0  0  0  0
  -10.2728   -3.7226    1.0268 O   0  0  0  0  0  0  0  0  0  0  0  0
  -10.4863   -1.7976    2.1136 N   0  0  0  0  0  0  0  0  0  0  0  0
   -9.9701   -0.6427    2.5734 C   0  0  0  0  0  0  0  0  0  0  0  0
  -10.5320    0.2306    3.2056 O   0  0  0  0  0  0  0  0  0  0  0  0
   -8.2649   -0.6922    2.0368 S   0  0  0  0  0  0  0  0  0  0  0  0
    0.0000   -0.6925   -1.2055 C   0  0  0  0  0  3  0  0  0  0  0  0
    0.0132   -2.0839   -1.2060 C   0  0  0  0  0  0  0  0  0  0  0  0
    0.0110   -2.7560   -2.4146 C   0  0  0  0  0  0  0  0  0  0  0  0
   -0.0044   -2.0117   -3.5870 C   0  0  0  0  0  0  0  0  0  0  0  0
   -0.0170   -0.6335   -3.5127 C   0  0  0  0  0  0  0  0  0  0  0  0
   -0.0200   -0.0186   -2.3450 N   0  0  0  0  0  0  0  0  0  0  0  0
    1.0048    1.8381    0.0023 H   0  0  0  0  0  0  0  0  0  0  0  0
   -0.5450    1.8219   -0.8730 H   0  0  0  0  0  0  0  0  0  0  0  0
   -0.5280    1.8123    0.9069 H   0  0  0  0  0  0  0  0  0  0  0  0
    0.5496   -1.6879    1.1262 H   0  0  0  0  0  0  0  0  0  0  0  0
    0.5371   -0.1514    2.0246 H   0  0  0  0  0  0  0  0  0  0  0  0
   -1.3961   -1.4911    2.7035 H   0  0  0  0  0  0  0  0  0  0  0  0
   -1.9619   -0.0816    1.7754 H   0  0  0  0  0  0  0  0  0  0  0  0
   -3.4507   -1.0876    2.8437 H   0  0  0  0  0  0  0  0  0  0  0  0
   -5.7846   -1.7188    3.3055 H   0  0  0  0  0  0  0  0  0  0  0  0
   -5.8481   -4.1007   -0.2321 H   0  0  0  0  0  0  0  0  0  0  0  0
   -3.5179   -3.4652   -0.7070 H   0  0  0  0  0  0  0  0  0  0  0  0
   -7.5805   -4.3285    1.4504 H   0  0  0  0  0  0  0  0  0  0  0  0
   -7.5539   -3.3347    2.9269 H   0  0  0  0  0  0  0  0  0  0  0  0
  -11.4209   -1.9864    2.2920 H   0  0  0  0  0  0  0  0  0  0  0  0
    0.0254   -2.6314   -0.2752 H   0  0  0  0  0  0  0  0  0  0  0  0
    0.0214   -3.8355   -2.4461 H   0  0  0  0  0  0  0  0  0  0  0  0
   -0.0062   -2.5062   -4.5471 H   0  0  0  0  0  0  0  0  0  0  0  0
   -0.0287   -0.0508   -4.4219 H   0  0  0  0  0  0  0  0  0  0  0  0
   -0.0329    0.9510   -2.3209 H   0  0  0  0  0  0  0  0  0  0  0  0
  1  2  1  0  0  0  0
  1 27  1  0  0  0  0
  1 28  1  0  0  0  0
  1 29  1  0  0  0  0
  2  3  1  0  0  0  0
  2 21  1  0  0  0  0
  3  4  1  0  0  0  0
  3 30  1  0  0  0  0
  3 31  1  0  0  0  0
  4  5  1  0  0  0  0
  4 32  1  0  0  0  0
  4 33  1  0  0  0  0
  5  6  1  0  0  0  0
  6 11  2  0  0  0  0
  6  7  1  0  0  0  0
  7  8  2  0  0  0  0
  7 34  1  0  0  0  0
  8  9  1  0  0  0  0
  8 35  1  0  0  0  0
  9 10  2  0  0  0  0
  9 12  1  0  0  0  0
 10 11  1  0  0  0  0
 10 36  1  0  0  0  0
 11 37  1  0  0  0  0
 12 13  1  0  0  0  0
 12 38  1  0  0  0  0
 12 39  1  0  0  0  0
 13 14  1  6  0  0  0
 13 20  1  0  0  0  0
 13 15  1  0  0  0  0
 15 16  2  0  0  0  0
 15 17  1  0  0  0  0
 17 18  1  0  0  0  0
 17 40  1  0  0  0  0
 18 19  2  0  0  0  0
 18 20  1  0  0  0  0
 21 26  1  0  0  0  0
 21 22  1  0  0  0  0
 22 23  2  0  0  0  0
 22 41  1  0  0  0  0
 23 24  1  0  0  0  0
 23 42  1  0  0  0  0
 24 25  2  0  0  0  0
 24 43  1  0  0  0  0
 25 26  1  0  0  0  0
 25 44  1  0  0  0  0
 26 45  1  0  0  0  0
M  END
$$$$
