ZINC00001899
 OpenBabel08292219463D

 33 34  0  0  0  0  0  0  0  0999 V2000
   -0.0164    1.3606    0.0095 C   0  0  0  0  0  0  0  0  0  0  0  0
    1.2014    1.8181    0.0004 N   0  0  0  0  0  0  0  0  0  0  0  0
    2.0711    0.7788   -0.0135 C   0  0  0  0  0  0  0  0  0  0  0  0
    3.4818    0.6749   -0.0276 C   0  0  0  0  0  0  0  0  0  0  0  0
    4.1818    1.6731   -0.0285 O   0  0  0  0  0  0  0  0  0  0  0  0
    4.0343   -0.5584   -0.0395 N   0  0  0  0  0  0  0  0  0  0  0  0
    4.9994   -0.6547   -0.0489 H   0  0  0  0  0  0  0  0  0  0  0  0
    3.2421   -1.6676   -0.0379 C   0  0  0  0  0  0  0  0  0  0  0  0
    1.9305   -1.5844   -0.0253 N   0  0  0  0  0  0  0  0  0  0  0  0
    1.3128   -0.3975   -0.0126 C   0  0  0  0  0  0  0  0  0  0  0  0
    0.0021   -0.0041    0.0020 N   0  0  0  0  0  0  0  0  0  0  0  0
   -1.1673   -0.8865    0.0089 C   0  0  0  0  0  0  0  0  0  0  0  0
   -1.4849   -1.3012    1.4470 C   0  0  0  0  0  0  0  0  0  0  0  0
   -2.7062   -2.2228    1.4541 C   0  0  0  0  0  0  0  0  0  0  0  0
   -2.3679   -3.5235    0.7230 C   0  0  0  0  0  0  0  0  0  0  0  0
   -3.5401   -4.3351    0.6277 O   0  0  0  0  0  0  0  0  0  0  0  0
   -3.0993   -2.5372    2.8989 C   0  0  0  0  0  0  0  0  0  0  0  0
   -4.3069   -3.3013    2.9084 O   0  0  0  0  0  0  0  0  0  0  0  0
    3.8310   -2.9070   -0.0502 N   0  0  0  0  0  0  0  0  0  0  0  0
   -0.9084    1.9694    0.0254 H   0  0  0  0  0  0  0  0  0  0  0  0
   -2.0225   -0.3597   -0.4146 H   0  0  0  0  0  0  0  0  0  0  0  0
   -0.9561   -1.7743   -0.5871 H   0  0  0  0  0  0  0  0  0  0  0  0
   -0.6297   -1.8280    1.8704 H   0  0  0  0  0  0  0  0  0  0  0  0
   -1.6961   -0.4134    2.0429 H   0  0  0  0  0  0  0  0  0  0  0  0
   -3.5372   -1.7286    0.9508 H   0  0  0  0  0  0  0  0  0  0  0  0
   -2.0029   -3.2934   -0.2780 H   0  0  0  0  0  0  0  0  0  0  0  0
   -1.5976   -4.0613    1.2759 H   0  0  0  0  0  0  0  0  0  0  0  0
   -3.3994   -5.1777    0.1746 H   0  0  0  0  0  0  0  0  0  0  0  0
   -2.3035   -3.1094    3.3757 H   0  0  0  0  0  0  0  0  0  0  0  0
   -3.2542   -1.6062    3.4442 H   0  0  0  0  0  0  0  0  0  0  0  0
   -4.6161   -3.5372    3.7938 H   0  0  0  0  0  0  0  0  0  0  0  0
    4.7979   -2.9845   -0.0598 H   0  0  0  0  0  0  0  0  0  0  0  0
    3.2805   -3.7056   -0.0492 H   0  0  0  0  0  0  0  0  0  0  0  0
  1 11  1  0  0  0  0
  1  2  2  0  0  0  0
  1 20  1  0  0  0  0
  2  3  1  0  0  0  0
  3 10  2  0  0  0  0
  3  4  1  0  0  0  0
  4  5  2  0  0  0  0
  4  6  1  0  0  0  0
  6  7  1  0  0  0  0
  6  8  1  0  0  0  0
  8  9  2  0  0  0  0
  8 19  1  0  0  0  0
  9 10  1  0  0  0  0
 10 11  1  0  0  0  0
 11 12  1  0  0  0  0
 12 13  1  0  0  0  0
 12 21  1  0  0  0  0
 12 22  1  0  0  0  0
 13 14  1  0  0  0  0
 13 23  1  0  0  0  0
 13 24  1  0  0  0  0
 14 15  1  0  0  0  0
 14 17  1  0  0  0  0
 14 25  1  0  0  0  0
 15 16  1  0  0  0  0
 15 26  1  0  0  0  0
 15 27  1  0  0  0  0
 16 28  1  0  0  0  0
 17 18  1  0  0  0  0
 17 29  1  0  0  0  0
 17 30  1  0  0  0  0
 18 31  1  0  0  0  0
 19 32  1  0  0  0  0
 19 33  1  0  0  0  0
M  END
$$$$
