ZINC01319234
 OpenBabel08292219463D

 49 52  0  0  1  0  0  0  0  0999 V2000
    3.0874   -9.3040    2.7778 C   0  0  0  0  0  0  0  0  0  0  0  0
    2.0926   -8.5842    2.0469 O   0  0  0  0  0  0  0  0  0  0  0  0
    2.2389   -7.2354    1.9699 C   0  0  0  0  0  0  0  0  0  0  0  0
    3.3329   -6.6224    2.5887 C   0  0  0  0  0  0  0  0  0  0  0  0
    3.5069   -5.2752    2.5296 C   0  0  0  0  0  0  0  0  0  0  0  0
    2.5765   -4.4794    1.8372 C   0  0  0  0  0  0  0  0  0  0  0  0
    1.4676   -5.1007    1.2100 C   0  0  0  0  0  0  0  0  0  0  0  0
    1.3187   -6.4944    1.2843 C   0  0  0  0  0  0  0  0  0  0  0  0
    0.5387   -4.3010    0.5180 C   0  0  0  0  0  0  0  0  0  0  0  0
    0.7501   -2.9519    0.4823 C   0  0  0  0  0  0  0  0  0  0  0  0
    1.8611   -2.4053    1.1203 C   0  0  0  0  0  0  0  0  0  0  0  0
    2.7246   -3.1531    1.7636 N   0  0  0  0  0  0  0  0  0  0  0  0
   -0.6556   -4.9161   -0.1650 C   0  0  2  0  0  0  0  0  0  0  0  0
   -0.8732   -5.8843    0.2860 H   0  0  0  0  0  0  0  0  0  0  0  0
   -0.3519   -5.1032   -1.6528 C   0  0  1  0  0  0  0  0  0  0  0  0
    0.1320   -4.2060   -2.0388 H   0  0  0  0  0  0  0  0  0  0  0  0
    0.5823   -6.3017   -1.8337 C   0  0  0  0  0  0  0  0  0  0  0  0
   -0.1131   -7.3418   -2.7219 C   0  0  2  0  0  0  0  0  0  0  0  0
    0.5296   -8.2113   -2.8592 H   0  0  0  0  0  0  0  0  0  0  0  0
   -0.4240   -6.6912   -4.0763 C   0  0  0  0  0  0  0  0  0  0  0  0
   -1.3157   -5.4694   -3.8439 C   0  0  0  0  0  0  0  0  0  0  0  0
   -1.6033   -5.3314   -2.3793 N   0  3  1  0  0  0  0  0  0  0  0  0
   -2.2947   -6.5124   -1.8572 C   0  0  0  0  0  0  0  0  0  0  0  0
   -1.4277   -7.7538   -2.0462 C   0  0  2  0  0  0  0  0  0  0  0  0
   -1.9515   -8.4737   -2.6749 H   0  0  0  0  0  0  0  0  0  0  0  0
   -1.1334   -8.3717   -0.7036 C   0  0  0  0  0  0  0  0  0  0  0  0
   -1.3804   -9.6418   -0.4988 C   0  0  0  0  0  0  0  0  0  0  0  0
   -1.7862   -4.0554   -0.0141 O   0  0  0  0  0  0  0  0  0  0  0  0
    2.8516  -10.3681    2.7612 H   0  0  0  0  0  0  0  0  0  0  0  0
    4.0633   -9.1409    2.3206 H   0  0  0  0  0  0  0  0  0  0  0  0
    3.1061   -8.9521    3.8093 H   0  0  0  0  0  0  0  0  0  0  0  0
    4.0504   -7.2283    3.1221 H   0  0  0  0  0  0  0  0  0  0  0  0
    4.3571   -4.8173    3.0133 H   0  0  0  0  0  0  0  0  0  0  0  0
    0.4797   -6.9775    0.8057 H   0  0  0  0  0  0  0  0  0  0  0  0
    0.0566   -2.3098   -0.0404 H   0  0  0  0  0  0  0  0  0  0  0  0
    2.0154   -1.3370    1.0838 H   0  0  0  0  0  0  0  0  0  0  0  0
    1.5073   -5.9754   -2.3090 H   0  0  0  0  0  0  0  0  0  0  0  0
    0.8044   -6.7417   -0.8614 H   0  0  0  0  0  0  0  0  0  0  0  0
    0.5051   -6.3798   -4.5538 H   0  0  0  0  0  0  0  0  0  0  0  0
   -0.9431   -7.4063   -4.7144 H   0  0  0  0  0  0  0  0  0  0  0  0
   -0.8120   -4.5778   -4.2172 H   0  0  0  0  0  0  0  0  0  0  0  0
   -2.2566   -5.6016   -4.3780 H   0  0  0  0  0  0  0  0  0  0  0  0
   -2.5001   -6.3716   -0.7960 H   0  0  0  0  0  0  0  0  0  0  0  0
   -3.2354   -6.6463   -2.3912 H   0  0  0  0  0  0  0  0  0  0  0  0
   -0.7189   -7.7674    0.0898 H   0  0  0  0  0  0  0  0  0  0  0  0
   -1.7950  -10.2461   -1.2922 H   0  0  0  0  0  0  0  0  0  0  0  0
   -1.1695  -10.0846    0.4634 H   0  0  0  0  0  0  0  0  0  0  0  0
   -1.6983   -3.2070   -0.4698 H   0  0  0  0  0  0  0  0  0  0  0  0
   -2.2032   -4.5320   -2.2408 H   0  0  0  0  0  0  0  0  0  0  0  0
  1  2  1  0  0  0  0
  1 29  1  0  0  0  0
  1 30  1  0  0  0  0
  1 31  1  0  0  0  0
  2  3  1  0  0  0  0
  3  8  2  0  0  0  0
  3  4  1  0  0  0  0
  4  5  2  0  0  0  0
  4 32  1  0  0  0  0
  5  6  1  0  0  0  0
  5 33  1  0  0  0  0
  6 12  2  0  0  0  0
  6  7  1  0  0  0  0
  7  8  1  0  0  0  0
  7  9  2  0  0  0  0
  8 34  1  0  0  0  0
  9 10  1  0  0  0  0
  9 13  1  0  0  0  0
 10 11  2  0  0  0  0
 10 35  1  0  0  0  0
 11 12  1  0  0  0  0
 11 36  1  0  0  0  0
 13 14  1  1  0  0  0
 13 15  1  0  0  0  0
 13 28  1  0  0  0  0
 15 16  1  6  0  0  0
 15 22  1  0  0  0  0
 15 17  1  0  0  0  0
 17 18  1  0  0  0  0
 17 37  1  0  0  0  0
 17 38  1  0  0  0  0
 18 19  1  6  0  0  0
 18 24  1  0  0  0  0
 18 20  1  0  0  0  0
 20 21  1  0  0  0  0
 20 39  1  0  0  0  0
 20 40  1  0  0  0  0
 21 22  1  0  0  0  0
 21 41  1  0  0  0  0
 21 42  1  0  0  0  0
 22 23  1  0  0  0  0
 22 49  1  1  0  0  0
 23 24  1  0  0  0  0
 23 43  1  0  0  0  0
 23 44  1  0  0  0  0
 24 25  1  6  0  0  0
 24 26  1  0  0  0  0
 26 27  2  0  0  0  0
 26 45  1  0  0  0  0
 27 46  1  0  0  0  0
 27 47  1  0  0  0  0
 28 48  1  0  0  0  0
M  CHG  1  22   1
M  END
$$$$
