ZINC00601254
 OpenBabel08292219463D

 40 42  0  0  1  0  0  0  0  0999 V2000
    0.0924   -2.8566    2.4867 C   0  0  0  0  0  0  0  0  0  0  0  0
    0.0580   -2.0910    1.1891 C   0  0  0  0  0  0  0  0  0  0  0  0
    0.1564   -2.7637   -0.0133 C   0  0  0  0  0  0  0  0  0  0  0  0
    0.1244   -2.0622   -1.2043 C   0  0  0  0  0  0  0  0  0  0  0  0
   -0.0061   -0.6853   -1.1961 C   0  0  0  0  0  0  0  0  0  0  0  0
   -0.1045   -0.0067    0.0025 C   0  0  0  0  0  0  0  0  0  0  0  0
   -0.0785   -0.7091    1.2007 C   0  0  0  0  0  0  0  0  0  0  0  0
   -0.1842   -0.0255    2.4162 N   0  0  0  0  0  0  0  0  0  0  0  0
   -1.4946    0.1106    3.0518 C   0  0  1  0  0  0  0  0  0  0  0  0
   -2.1201   -0.7379    2.7745 H   0  0  0  0  0  0  0  0  0  0  0  0
   -1.3502    0.1512    4.5121 N   0  0  0  0  0  0  0  0  0  0  0  0
   -0.3451    0.9416    5.0581 C   0  0  0  0  0  0  0  0  0  0  0  0
   -0.4683    1.5242    6.3068 C   0  0  0  0  0  0  0  0  0  0  0  0
    0.5600    2.3064    6.8013 C   0  0  0  0  0  0  0  0  0  0  0  0
    1.7119    2.5107    6.0550 C   0  0  0  0  0  0  0  0  0  0  0  0
    1.8502    1.9354    4.8094 C   0  0  0  0  0  0  0  0  0  0  0  0
    0.8236    1.1429    4.3011 C   0  0  0  0  0  0  0  0  0  0  0  0
    0.9252    0.4915    2.9839 C   0  0  0  0  0  0  0  0  0  0  0  0
    1.9968    0.4238    2.4127 O   0  0  0  0  0  0  0  0  0  0  0  0
    3.0074    3.5134    6.7037 S   0  0  0  0  0  0  0  0  0  0  0  0
    3.2515    3.0559    8.0267 O   0  0  0  0  0  0  0  0  0  0  0  0
    4.0244    3.5545    5.7120 O   0  0  0  0  0  0  0  0  0  0  0  0
    2.4142    5.0537    6.8374 N   0  0  0  0  0  0  0  0  0  0  0  0
    0.4078    3.0387    8.3679 Cl  0  0  0  0  0  0  0  0  0  0  0  0
   -2.1567    1.4051    2.5754 C   0  0  0  0  0  0  0  0  0  0  0  0
   -0.9267   -3.0597    2.8159 H   0  0  0  0  0  0  0  0  0  0  0  0
    0.6210   -3.7983    2.3391 H   0  0  0  0  0  0  0  0  0  0  0  0
    0.6077   -2.2654    3.2438 H   0  0  0  0  0  0  0  0  0  0  0  0
    0.2588   -3.8388   -0.0231 H   0  0  0  0  0  0  0  0  0  0  0  0
    0.2020   -2.5904   -2.1431 H   0  0  0  0  0  0  0  0  0  0  0  0
   -0.0307   -0.1402   -2.1281 H   0  0  0  0  0  0  0  0  0  0  0  0
   -0.2061    1.0685    0.0083 H   0  0  0  0  0  0  0  0  0  0  0  0
   -1.9430   -0.3617    5.0834 H   0  0  0  0  0  0  0  0  0  0  0  0
   -1.3626    1.3695    6.8922 H   0  0  0  0  0  0  0  0  0  0  0  0
    2.7483    2.0981    4.2321 H   0  0  0  0  0  0  0  0  0  0  0  0
    2.7507    5.6447    7.5290 H   0  0  0  0  0  0  0  0  0  0  0  0
    1.7302    5.3650    6.2240 H   0  0  0  0  0  0  0  0  0  0  0  0
   -2.3606    1.3370    1.5068 H   0  0  0  0  0  0  0  0  0  0  0  0
   -3.0918    1.5548    3.1149 H   0  0  0  0  0  0  0  0  0  0  0  0
   -1.4892    2.2457    2.7651 H   0  0  0  0  0  0  0  0  0  0  0  0
  1  2  1  0  0  0  0
  1 26  1  0  0  0  0
  1 27  1  0  0  0  0
  1 28  1  0  0  0  0
  2  7  2  0  0  0  0
  2  3  1  0  0  0  0
  3  4  2  0  0  0  0
  3 29  1  0  0  0  0
  4  5  1  0  0  0  0
  4 30  1  0  0  0  0
  5  6  2  0  0  0  0
  5 31  1  0  0  0  0
  6  7  1  0  0  0  0
  6 32  1  0  0  0  0
  7  8  1  0  0  0  0
  8 18  1  0  0  0  0
  8  9  1  0  0  0  0
  9 10  1  6  0  0  0
  9 11  1  0  0  0  0
  9 25  1  0  0  0  0
 11 12  1  0  0  0  0
 11 33  1  0  0  0  0
 12 17  2  0  0  0  0
 12 13  1  0  0  0  0
 13 14  2  0  0  0  0
 13 34  1  0  0  0  0
 14 15  1  0  0  0  0
 14 24  1  0  0  0  0
 15 16  2  0  0  0  0
 15 20  1  0  0  0  0
 16 17  1  0  0  0  0
 16 35  1  0  0  0  0
 17 18  1  0  0  0  0
 18 19  2  0  0  0  0
 20 21  2  0  0  0  0
 20 22  2  0  0  0  0
 20 23  1  0  0  0  0
 23 36  1  0  0  0  0
 23 37  1  0  0  0  0
 25 38  1  0  0  0  0
 25 39  1  0  0  0  0
 25 40  1  0  0  0  0
M  END
$$$$
