ZINC01542891
 OpenBabel08292219463D

 53 54  0  0  1  0  0  0  0  0999 V2000
   -0.0184    1.5028    0.0103 C   0  0  0  0  0  0  0  0  0  0  0  0
    0.0021   -0.0041    0.0020 C   0  0  0  0  0  0  0  0  0  0  0  0
    0.0057   -0.6883   -1.1997 C   0  0  0  0  0  0  0  0  0  0  0  0
    0.0244   -2.0706   -1.2107 C   0  0  0  0  0  0  0  0  0  0  0  0
    0.0391   -2.7719   -0.0203 C   0  0  0  0  0  0  0  0  0  0  0  0
    0.0355   -2.0879    1.1864 C   0  0  0  0  0  0  0  0  0  0  0  0
    0.0229   -0.7004    1.1947 C   0  0  0  0  0  0  0  0  0  0  0  0
    0.0500   -2.7755    2.3585 O   0  0  0  0  0  0  0  0  0  0  0  0
    0.0686   -4.2018    2.2738 C   0  0  0  0  0  0  0  0  0  0  0  0
    0.0829   -4.7963    3.6835 C   0  0  2  0  0  0  0  0  0  0  0  0
    0.9218   -4.3832    4.2435 H   0  0  0  0  0  0  0  0  0  0  0  0
    0.2284   -6.3168    3.5944 C   0  0  0  0  0  0  0  0  0  0  0  0
    0.2421   -6.8876    4.9479 N   0  3  0  0  0  0  0  0  0  0  0  0
    0.3819   -8.3474    4.8623 C   0  0  0  0  0  0  0  0  0  0  0  0
    0.3962   -8.9419    6.2720 C   0  0  0  0  0  0  0  0  0  0  0  0
    0.5395  -10.4395    6.1842 C   0  0  0  0  0  0  0  0  0  0  0  0
   -0.5871  -11.2366    6.1031 C   0  0  0  0  0  0  0  0  0  0  0  0
   -0.4609  -12.6109    6.0223 C   0  0  0  0  0  0  0  0  0  0  0  0
    0.7969  -13.1923    6.0221 C   0  0  0  0  0  0  0  0  0  0  0  0
    1.9309  -12.3899    6.1033 C   0  0  0  0  0  0  0  0  0  0  0  0
    1.7975  -11.0128    6.1791 C   0  0  0  0  0  0  0  0  0  0  0  0
    3.1675  -12.9558    6.1034 O   0  0  0  0  0  0  0  0  0  0  0  0
    4.2860  -12.0706    6.1893 C   0  0  0  0  0  0  0  0  0  0  0  0
    0.9228  -14.5441    5.9432 O   0  0  0  0  0  0  0  0  0  0  0  0
   -0.2845  -15.3045    5.8630 C   0  0  0  0  0  0  0  0  0  0  0  0
   -1.1396   -4.4731    4.3492 O   0  0  0  0  0  0  0  0  0  0  0  0
    1.0042    1.8801    0.0026 H   0  0  0  0  0  0  0  0  0  0  0  0
   -0.5455    1.8639   -0.8728 H   0  0  0  0  0  0  0  0  0  0  0  0
   -0.5286    1.8543    0.9071 H   0  0  0  0  0  0  0  0  0  0  0  0
   -0.0065   -0.1419   -2.1312 H   0  0  0  0  0  0  0  0  0  0  0  0
    0.0272   -2.6027   -2.1505 H   0  0  0  0  0  0  0  0  0  0  0  0
    0.0530   -3.8518   -0.0294 H   0  0  0  0  0  0  0  0  0  0  0  0
    0.0248   -0.1655    2.1329 H   0  0  0  0  0  0  0  0  0  0  0  0
   -0.8194   -4.5459    1.7434 H   0  0  0  0  0  0  0  0  0  0  0  0
    0.9604   -4.5222    1.7353 H   0  0  0  0  0  0  0  0  0  0  0  0
   -0.6105   -6.7299    3.0343 H   0  0  0  0  0  0  0  0  0  0  0  0
    1.1608   -6.5634    3.0866 H   0  0  0  0  0  0  0  0  0  0  0  0
    1.0187   -6.5052    5.4663 H   0  0  0  0  0  0  0  0  0  0  0  0
   -0.4571   -8.7605    4.3022 H   0  0  0  0  0  0  0  0  0  0  0  0
    1.3143   -8.5940    4.3545 H   0  0  0  0  0  0  0  0  0  0  0  0
    1.2351   -8.5288    6.8320 H   0  0  0  0  0  0  0  0  0  0  0  0
   -0.5363   -8.6953    6.7798 H   0  0  0  0  0  0  0  0  0  0  0  0
   -1.5680  -10.7847    6.1031 H   0  0  0  0  0  0  0  0  0  0  0  0
   -1.3427  -13.2314    5.9598 H   0  0  0  0  0  0  0  0  0  0  0  0
    2.6761  -10.3876    6.2384 H   0  0  0  0  0  0  0  0  0  0  0  0
    4.2259  -11.4979    7.1147 H   0  0  0  0  0  0  0  0  0  0  0  0
    5.2093  -12.6499    6.1798 H   0  0  0  0  0  0  0  0  0  0  0  0
    4.2760  -11.3889    5.3388 H   0  0  0  0  0  0  0  0  0  0  0  0
   -0.0423  -16.3657    5.8051 H   0  0  0  0  0  0  0  0  0  0  0  0
   -0.8909  -15.1181    6.7493 H   0  0  0  0  0  0  0  0  0  0  0  0
   -0.8411  -15.0098    4.9734 H   0  0  0  0  0  0  0  0  0  0  0  0
   -1.9300   -4.8098    3.9055 H   0  0  0  0  0  0  0  0  0  0  0  0
   -0.6210   -6.6593    5.4179 H   0  0  0  0  0  0  0  0  0  0  0  0
  1  2  1  0  0  0  0
  1 27  1  0  0  0  0
  1 28  1  0  0  0  0
  1 29  1  0  0  0  0
  2  7  2  0  0  0  0
  2  3  1  0  0  0  0
  3  4  2  0  0  0  0
  3 30  1  0  0  0  0
  4  5  1  0  0  0  0
  4 31  1  0  0  0  0
  5  6  2  0  0  0  0
  5 32  1  0  0  0  0
  6  7  1  0  0  0  0
  6  8  1  0  0  0  0
  7 33  1  0  0  0  0
  8  9  1  0  0  0  0
  9 10  1  0  0  0  0
  9 34  1  0  0  0  0
  9 35  1  0  0  0  0
 10 11  1  1  0  0  0
 10 12  1  0  0  0  0
 10 26  1  0  0  0  0
 12 13  1  0  0  0  0
 12 36  1  0  0  0  0
 12 37  1  0  0  0  0
 13 14  1  0  0  0  0
 13 38  1  0  0  0  0
 13 53  1  0  0  0  0
 14 15  1  0  0  0  0
 14 39  1  0  0  0  0
 14 40  1  0  0  0  0
 15 16  1  0  0  0  0
 15 41  1  0  0  0  0
 15 42  1  0  0  0  0
 16 21  2  0  0  0  0
 16 17  1  0  0  0  0
 17 18  2  0  0  0  0
 17 43  1  0  0  0  0
 18 19  1  0  0  0  0
 18 44  1  0  0  0  0
 19 20  2  0  0  0  0
 19 24  1  0  0  0  0
 20 21  1  0  0  0  0
 20 22  1  0  0  0  0
 21 45  1  0  0  0  0
 22 23  1  0  0  0  0
 23 46  1  0  0  0  0
 23 47  1  0  0  0  0
 23 48  1  0  0  0  0
 24 25  1  0  0  0  0
 25 49  1  0  0  0  0
 25 50  1  0  0  0  0
 25 51  1  0  0  0  0
 26 52  1  0  0  0  0
M  CHG  1  13   1
M  END
$$$$
