ZINC85555528
 OpenBabel08292219463D

118126  0  0  1  0  0  0  0  0999 V2000
    1.5548  -11.4157   -1.7464 C   0  0  0  0  0  0  0  0  0  0  0  0
    2.1163  -10.5069   -0.6511 C   0  0  0  0  0  0  0  0  0  0  0  0
    1.1546   -9.3370   -0.4150 C   0  0  2  0  0  0  0  0  0  0  0  0
    1.7949   -8.3770    0.6047 C   0  0  0  0  0  0  0  0  0  0  0  0
    0.7051   -7.4297    1.0996 C   0  0  2  0  0  0  0  0  0  0  0  0
    0.2101   -6.9789    0.2546 H   0  0  0  0  0  0  0  0  0  0  0  0
    1.0531   -6.4133    2.1798 C   0  0  0  0  0  0  0  0  0  0  0  0
   -0.2685   -5.6140    2.4375 C   0  0  1  0  0  0  0  0  0  0  0  0
   -1.2216   -5.8138    1.2767 C   0  0  0  0  0  0  0  0  0  0  0  0
   -2.2276   -6.6844    1.0697 C   0  0  0  0  0  0  0  0  0  0  0  0
   -2.8236   -6.3595   -0.2272 C   0  0  0  0  0  0  0  0  0  0  0  0
   -3.9014   -6.9167   -0.9213 C   0  0  0  0  0  0  0  0  0  0  0  0
   -4.2088   -6.3515   -2.1351 C   0  0  0  0  0  0  0  0  0  0  0  0
   -3.4908   -5.2849   -2.6515 C   0  0  0  0  0  0  0  0  0  0  0  0
   -2.4153   -4.7235   -1.9852 C   0  0  0  0  0  0  0  0  0  0  0  0
   -2.0803   -5.2823   -0.7519 C   0  0  0  0  0  0  0  0  0  0  0  0
   -1.1043   -5.0043    0.1507 N   0  0  0  0  0  0  0  0  0  0  0  0
   -0.4114   -4.3432    0.0056 H   0  0  0  0  0  0  0  0  0  0  0  0
   -2.7481   -7.8404    1.9027 C   0  0  0  0  0  0  0  0  0  0  0  0
   -2.3322   -9.1820    1.1943 C   0  0  0  0  0  0  0  0  0  0  0  0
   -1.0183   -8.8568    0.6217 N   0  3  1  0  0  0  0  0  0  0  0  0
   -0.2108   -8.4731    1.8316 C   0  0  0  0  0  0  0  0  0  0  0  0
   -0.2058   -9.9030    0.0203 C   0  0  0  0  0  0  0  0  0  0  0  0
   -0.8851   -5.9400    3.7733 C   0  0  0  0  0  0  0  0  0  0  0  0
   -0.2015   -6.7687    4.6541 C   0  0  0  0  0  0  0  0  0  0  0  0
   -0.8131   -7.0460    5.8617 C   0  0  0  0  0  0  0  0  0  0  0  0
   -2.0789   -6.5474    6.1849 C   0  0  0  0  0  0  0  0  0  0  0  0
   -2.7478   -5.6929    5.3061 C   0  0  0  0  0  0  0  0  0  0  0  0
   -2.1189   -5.4028    4.0998 C   0  0  0  0  0  0  0  0  0  0  0  0
   -2.7343   -4.5745    3.2155 O   0  0  0  0  0  0  0  0  0  0  0  0
   -3.9651   -3.9797    3.6322 C   0  0  0  0  0  0  0  0  0  0  0  0
   -2.5311   -7.0701    7.3857 N   0  0  0  0  0  0  0  0  0  0  0  0
   -1.3994   -7.7137    8.0881 C   0  0  2  0  0  0  0  0  0  0  0  0
   -1.0542   -7.0760    8.9019 H   0  0  0  0  0  0  0  0  0  0  0  0
   -0.3107   -7.8448    7.0314 C   0  0  2  0  0  0  0  0  0  0  0  0
    0.9850   -7.1678    7.5632 C   0  0  0  0  0  0  0  0  0  0  0  0
    2.1114   -8.0178    6.9280 C   0  0  0  0  0  0  0  0  0  0  0  0
    1.5484   -9.3979    6.8923 N   0  0  2  0  0  0  0  0  0  0  0  0
    0.1190   -9.2276    6.6408 C   0  0  1  0  0  0  0  0  0  0  0  0
    0.1033   -9.1640    5.5528 H   0  0  0  0  0  0  0  0  0  0  0  0
   -0.7512  -10.4056    6.8825 C   0  0  1  0  0  0  0  0  0  0  0  0
   -0.1348  -11.4540    7.7575 C   0  0  0  0  0  0  0  0  0  0  0  0
    1.0198  -11.3022    8.3304 C   0  0  0  0  0  0  0  0  0  0  0  0
    1.8250  -10.0465    8.1782 C   0  0  0  0  0  0  0  0  0  0  0  0
   -2.1164  -10.0085    7.4485 C   0  0  2  0  0  0  0  0  0  0  0  0
   -2.7027   -9.5054    6.6796 H   0  0  0  0  0  0  0  0  0  0  0  0
   -1.8818   -9.0475    8.6410 C   0  0  2  0  0  0  0  0  0  0  0  0
   -3.1598   -8.8404    9.4124 C   0  0  0  0  0  0  0  0  0  0  0  0
   -4.1271   -9.5238    9.1735 O   0  0  0  0  0  0  0  0  0  0  0  0
   -3.2234   -7.8966   10.3648 O   0  0  0  0  0  0  0  0  0  0  0  0
   -4.4661   -7.7553   11.0560 C   0  0  0  0  0  0  0  0  0  0  0  0
   -0.8843   -9.5951    9.5053 O   0  0  0  0  0  0  0  0  0  0  0  0
   -2.8100  -11.1729    7.9014 O   0  0  0  0  0  0  0  0  0  0  0  0
   -4.0989  -11.2913    7.5460 C   0  0  0  0  0  0  0  0  0  0  0  0
   -4.6210  -10.4347    6.8725 O   0  0  0  0  0  0  0  0  0  0  0  0
   -4.8949  -12.4926    7.9868 C   0  0  0  0  0  0  0  0  0  0  0  0
   -1.0170  -11.0556    5.5232 C   0  0  0  0  0  0  0  0  0  0  0  0
   -1.9133  -12.2814    5.7105 C   0  0  0  0  0  0  0  0  0  0  0  0
   -3.9081   -6.9968    7.8803 C   0  0  0  0  0  0  0  0  0  0  0  0
    0.1000   -4.1304    2.4911 C   0  0  0  0  0  0  0  0  0  0  0  0
    1.2491   -3.7876    2.3432 O   0  0  0  0  0  0  0  0  0  0  0  0
   -0.8533   -3.2093    2.7023 O   0  0  0  0  0  0  0  0  0  0  0  0
   -0.4378   -1.8426    2.7402 C   0  0  0  0  0  0  0  0  0  0  0  0
    0.9834   -8.6385   -1.6520 O   0  0  0  0  0  0  0  0  0  0  0  0
    1.4423  -10.8461   -2.6689 H   0  0  0  0  0  0  0  0  0  0  0  0
    2.2388  -12.2477   -1.9143 H   0  0  0  0  0  0  0  0  0  0  0  0
    0.5834  -11.8008   -1.4364 H   0  0  0  0  0  0  0  0  0  0  0  0
    2.2288  -11.0766    0.2714 H   0  0  0  0  0  0  0  0  0  0  0  0
    3.0878  -10.1218   -0.9611 H   0  0  0  0  0  0  0  0  0  0  0  0
    2.1934   -8.9387    1.4463 H   0  0  0  0  0  0  0  0  0  0  0  0
    2.5844   -7.7997    0.1299 H   0  0  0  0  0  0  0  0  0  0  0  0
    1.3843   -6.9179    3.0976 H   0  0  0  0  0  0  0  0  0  0  0  0
    1.8526   -5.7410    1.8407 H   0  0  0  0  0  0  0  0  0  0  0  0
   -4.4628   -7.7492   -0.5241 H   0  0  0  0  0  0  0  0  0  0  0  0
   -5.0354   -6.7521   -2.7031 H   0  0  0  0  0  0  0  0  0  0  0  0
   -3.7825   -4.8771   -3.6081 H   0  0  0  0  0  0  0  0  0  0  0  0
   -1.8643   -3.8931   -2.3998 H   0  0  0  0  0  0  0  0  0  0  0  0
   -2.4043   -7.8139    2.9233 H   0  0  0  0  0  0  0  0  0  0  0  0
   -3.8497   -7.7854    1.9146 H   0  0  0  0  0  0  0  0  0  0  0  0
   -2.2548   -9.9936    1.9212 H   0  0  0  0  0  0  0  0  0  0  0  0
   -3.0487   -9.4427    0.4116 H   0  0  0  0  0  0  0  0  0  0  0  0
    0.3935   -9.3304    2.1737 H   0  0  0  0  0  0  0  0  0  0  0  0
   -0.7794   -8.0847    2.6438 H   0  0  0  0  0  0  0  0  0  0  0  0
   -0.7245  -10.3011   -0.8536 H   0  0  0  0  0  0  0  0  0  0  0  0
   -0.0517  -10.7048    0.7419 H   0  0  0  0  0  0  0  0  0  0  0  0
    0.7662   -7.1789    4.4055 H   0  0  0  0  0  0  0  0  0  0  0  0
   -3.7107   -5.2716    5.5543 H   0  0  0  0  0  0  0  0  0  0  0  0
   -4.3156   -3.2926    2.8620 H   0  0  0  0  0  0  0  0  0  0  0  0
   -4.7103   -4.7594    3.7900 H   0  0  0  0  0  0  0  0  0  0  0  0
   -3.8081   -3.4335    4.5623 H   0  0  0  0  0  0  0  0  0  0  0  0
    1.0457   -6.1334    7.2249 H   0  0  0  0  0  0  0  0  0  0  0  0
    1.0289   -7.2215    8.6510 H   0  0  0  0  0  0  0  0  0  0  0  0
    2.3304   -7.6686    5.9190 H   0  0  0  0  0  0  0  0  0  0  0  0
    3.0081   -7.9871    7.5468 H   0  0  0  0  0  0  0  0  0  0  0  0
   -0.6746  -12.3755    7.9187 H   0  0  0  0  0  0  0  0  0  0  0  0
    1.4130  -12.1055    8.9358 H   0  0  0  0  0  0  0  0  0  0  0  0
    2.8854  -10.2922    8.2346 H   0  0  0  0  0  0  0  0  0  0  0  0
    1.5740   -9.3600    8.9868 H   0  0  0  0  0  0  0  0  0  0  0  0
   -4.3813   -6.9602   11.7968 H   0  0  0  0  0  0  0  0  0  0  0  0
   -5.2520   -7.5055   10.3433 H   0  0  0  0  0  0  0  0  0  0  0  0
   -4.7127   -8.6923   11.5553 H   0  0  0  0  0  0  0  0  0  0  0  0
   -1.1254  -10.4470    9.8942 H   0  0  0  0  0  0  0  0  0  0  0  0
   -5.3679  -12.2830    8.9462 H   0  0  0  0  0  0  0  0  0  0  0  0
   -5.6616  -12.7129    7.2441 H   0  0  0  0  0  0  0  0  0  0  0  0
   -4.2308  -13.3509    8.0890 H   0  0  0  0  0  0  0  0  0  0  0  0
   -1.5134  -10.3392    4.8687 H   0  0  0  0  0  0  0  0  0  0  0  0
   -0.0714  -11.3619    5.0758 H   0  0  0  0  0  0  0  0  0  0  0  0
   -1.4169  -12.9979    6.3650 H   0  0  0  0  0  0  0  0  0  0  0  0
   -2.8589  -11.9751    6.1579 H   0  0  0  0  0  0  0  0  0  0  0  0
   -2.1027  -12.7445    4.7421 H   0  0  0  0  0  0  0  0  0  0  0  0
   -4.5036   -6.3799    7.2073 H   0  0  0  0  0  0  0  0  0  0  0  0
   -4.3322   -7.9999    7.9245 H   0  0  0  0  0  0  0  0  0  0  0  0
   -3.9131   -6.5559    8.8772 H   0  0  0  0  0  0  0  0  0  0  0  0
    0.2856   -1.7049    3.5438 H   0  0  0  0  0  0  0  0  0  0  0  0
    0.0213   -1.5759    1.7883 H   0  0  0  0  0  0  0  0  0  0  0  0
   -1.3036   -1.2045    2.9175 H   0  0  0  0  0  0  0  0  0  0  0  0
    0.6184   -9.1823   -2.3635 H   0  0  0  0  0  0  0  0  0  0  0  0
   -1.0953   -8.0926   -0.0293 H   0  0  0  0  0  0  0  0  0  0  0  0
  1  2  1  0  0  0  0
  1 65  1  0  0  0  0
  1 66  1  0  0  0  0
  1 67  1  0  0  0  0
  2  3  1  0  0  0  0
  2 68  1  0  0  0  0
  2 69  1  0  0  0  0
  3 23  1  0  0  0  0
  3  4  1  0  0  0  0
  3 64  1  6  0  0  0
  4  5  1  0  0  0  0
  4 70  1  0  0  0  0
  4 71  1  0  0  0  0
  5  6  1  6  0  0  0
  5 22  1  0  0  0  0
  5  7  1  0  0  0  0
  7  8  1  0  0  0  0
  7 72  1  0  0  0  0
  7 73  1  0  0  0  0
  8  9  1  0  0  0  0
  8 24  1  0  0  0  0
  8 60  1  1  0  0  0
  9 17  1  0  0  0  0
  9 10  2  0  0  0  0
 10 11  1  0  0  0  0
 10 19  1  0  0  0  0
 11 16  2  0  0  0  0
 11 12  1  0  0  0  0
 12 13  2  0  0  0  0
 12 74  1  0  0  0  0
 13 14  1  0  0  0  0
 13 75  1  0  0  0  0
 14 15  2  0  0  0  0
 14 76  1  0  0  0  0
 15 16  1  0  0  0  0
 15 77  1  0  0  0  0
 16 17  1  0  0  0  0
 17 18  1  0  0  0  0
 19 20  1  0  0  0  0
 19 78  1  0  0  0  0
 19 79  1  0  0  0  0
 20 21  1  0  0  0  0
 20 80  1  0  0  0  0
 20 81  1  0  0  0  0
 21 22  1  0  0  0  0
 21 23  1  0  0  0  0
 21118  1  6  0  0  0
 22 82  1  0  0  0  0
 22 83  1  0  0  0  0
 23 84  1  0  0  0  0
 23 85  1  0  0  0  0
 24 29  2  0  0  0  0
 24 25  1  0  0  0  0
 25 26  2  0  0  0  0
 25 86  1  0  0  0  0
 26 27  1  0  0  0  0
 27 28  2  0  0  0  0
 27 32  1  0  0  0  0
 28 29  1  0  0  0  0
 28 87  1  0  0  0  0
 29 30  1  0  0  0  0
 30 31  1  0  0  0  0
 31 88  1  0  0  0  0
 31 89  1  0  0  0  0
 31 90  1  0  0  0  0
 32 33  1  0  0  0  0
 32 59  1  0  0  0  0
 33 34  1  1  0  0  0
 33 47  1  0  0  0  0
 33 35  1  0  0  0  0
 35 26  1  6  0  0  0
 35 39  1  0  0  0  0
 35 36  1  0  0  0  0
 36 37  1  0  0  0  0
 36 91  1  0  0  0  0
 36 92  1  0  0  0  0
 37 93  1  0  0  0  0
 37 94  1  0  0  0  0
 38 37  1  1  0  0  0
 38 44  1  0  0  0  0
 38 39  1  0  0  0  0
 39 40  1  6  0  0  0
 39 41  1  0  0  0  0
 41 42  1  0  0  0  0
 41 45  1  0  0  0  0
 41 57  1  6  0  0  0
 42 43  2  0  0  0  0
 42 95  1  0  0  0  0
 43 44  1  0  0  0  0
 43 96  1  0  0  0  0
 44 97  1  0  0  0  0
 44 98  1  0  0  0  0
 45 46  1  6  0  0  0
 45 47  1  0  0  0  0
 45 53  1  0  0  0  0
 47 48  1  1  0  0  0
 47 52  1  0  0  0  0
 48 49  2  0  0  0  0
 48 50  1  0  0  0  0
 50 51  1  0  0  0  0
 51 99  1  0  0  0  0
 51100  1  0  0  0  0
 51101  1  0  0  0  0
 52102  1  0  0  0  0
 53 54  1  0  0  0  0
 54 55  2  0  0  0  0
 54 56  1  0  0  0  0
 56103  1  0  0  0  0
 56104  1  0  0  0  0
 56105  1  0  0  0  0
 57 58  1  0  0  0  0
 57106  1  0  0  0  0
 57107  1  0  0  0  0
 58108  1  0  0  0  0
 58109  1  0  0  0  0
 58110  1  0  0  0  0
 59111  1  0  0  0  0
 59112  1  0  0  0  0
 59113  1  0  0  0  0
 60 61  2  0  0  0  0
 60 62  1  0  0  0  0
 62 63  1  0  0  0  0
 63114  1  0  0  0  0
 63115  1  0  0  0  0
 63116  1  0  0  0  0
 64117  1  0  0  0  0
M  CHG  1  21   1
M  END
$$$$
