ZINC19796018
 OpenBabel08292219463D

 50 53  0  0  0  0  0  0  0  0999 V2000
    0.4198    1.5427   -0.3189 C   0  0  0  0  0  0  0  0  0  0  0  0
    0.3483    0.0770   -0.2501 N   0  3  0  0  0  0  0  0  0  0  0  0
    0.9695   -0.5001   -1.4494 C   0  0  0  0  0  0  0  0  0  0  0  0
    0.8785   -2.0264   -1.3871 C   0  0  0  0  0  0  0  0  0  0  0  0
    1.5651   -2.5063   -0.1795 N   0  0  0  0  0  0  0  0  0  0  0  0
    0.9698   -1.9174    1.0283 C   0  0  0  0  0  0  0  0  0  0  0  0
    1.0601   -0.3920    0.9461 C   0  0  0  0  0  0  0  0  0  0  0  0
    1.5486   -3.9737   -0.1127 C   0  0  0  0  0  0  0  0  0  0  0  0
    2.4761   -4.4435    1.0098 C   0  0  0  0  0  0  0  0  0  0  0  0
    2.4590   -5.9719    1.0794 C   0  0  0  0  0  0  0  0  0  0  0  0
    3.3471   -6.4217    2.1542 N   0  0  0  0  0  0  0  0  0  0  0  0
    2.7946   -6.5759    3.4230 C   0  0  0  0  0  0  0  0  0  0  0  0
    1.6440   -5.8632    3.7446 C   0  0  0  0  0  0  0  0  0  0  0  0
    1.0659   -5.9969    4.9925 C   0  0  0  0  0  0  0  0  0  0  0  0
    1.6270   -6.8404    5.9324 C   0  0  0  0  0  0  0  0  0  0  0  0
    2.7717   -7.5524    5.6245 C   0  0  0  0  0  0  0  0  0  0  0  0
    3.3587   -7.4217    4.3739 C   0  0  0  0  0  0  0  0  0  0  0  0
    4.8221   -8.3291    4.0032 S   0  0  0  0  0  0  0  0  0  0  0  0
    5.4783   -7.5177    2.5841 C   0  0  0  0  0  0  0  0  0  0  0  0
    4.6781   -6.6680    1.8281 C   0  0  0  0  0  0  0  0  0  0  0  0
    5.2220   -6.0404    0.7126 C   0  0  0  0  0  0  0  0  0  0  0  0
    6.5395   -6.2660    0.3570 C   0  0  0  0  0  0  0  0  0  0  0  0
    7.3266   -7.1182    1.1092 C   0  0  0  0  0  0  0  0  0  0  0  0
    6.7994   -7.7361    2.2222 C   0  0  0  0  0  0  0  0  0  0  0  0
    7.2069   -5.4764   -1.0375 Cl  0  0  0  0  0  0  0  0  0  0  0  0
    1.4632    1.8534   -0.3717 H   0  0  0  0  0  0  0  0  0  0  0  0
   -0.1084    1.8909   -1.2065 H   0  0  0  0  0  0  0  0  0  0  0  0
   -0.0424    1.9712    0.5704 H   0  0  0  0  0  0  0  0  0  0  0  0
    0.4486   -0.1410   -2.3370 H   0  0  0  0  0  0  0  0  0  0  0  0
    2.0164   -0.2002   -1.4964 H   0  0  0  0  0  0  0  0  0  0  0  0
   -0.1687   -2.3272   -1.3539 H   0  0  0  0  0  0  0  0  0  0  0  0
    1.3526   -2.4553   -2.2699 H   0  0  0  0  0  0  0  0  0  0  0  0
   -0.0759   -2.2164    1.1013 H   0  0  0  0  0  0  0  0  0  0  0  0
    1.5106   -2.2668    1.9078 H   0  0  0  0  0  0  0  0  0  0  0  0
    2.1065   -0.0927    0.8869 H   0  0  0  0  0  0  0  0  0  0  0  0
    0.6063    0.0473    1.8345 H   0  0  0  0  0  0  0  0  0  0  0  0
    0.5336   -4.3170    0.0871 H   0  0  0  0  0  0  0  0  0  0  0  0
    1.8908   -4.3846   -1.0625 H   0  0  0  0  0  0  0  0  0  0  0  0
    3.4912   -4.1003    0.8100 H   0  0  0  0  0  0  0  0  0  0  0  0
    2.1340   -4.0327    1.9597 H   0  0  0  0  0  0  0  0  0  0  0  0
    1.4440   -6.3151    1.2792 H   0  0  0  0  0  0  0  0  0  0  0  0
    2.8011   -6.3827    0.1295 H   0  0  0  0  0  0  0  0  0  0  0  0
    1.2005   -5.2017    3.0152 H   0  0  0  0  0  0  0  0  0  0  0  0
    0.1727   -5.4399    5.2342 H   0  0  0  0  0  0  0  0  0  0  0  0
    1.1721   -6.9432    6.9065 H   0  0  0  0  0  0  0  0  0  0  0  0
    3.2101   -8.2117    6.3592 H   0  0  0  0  0  0  0  0  0  0  0  0
    4.6127   -5.3731    0.1211 H   0  0  0  0  0  0  0  0  0  0  0  0
    8.3547   -7.2934    0.8286 H   0  0  0  0  0  0  0  0  0  0  0  0
    7.4156   -8.4014    2.8089 H   0  0  0  0  0  0  0  0  0  0  0  0
   -0.6177   -0.2104   -0.2007 H   0  0  0  0  0  0  0  0  0  0  0  0
  1  2  1  0  0  0  0
  1 26  1  0  0  0  0
  1 27  1  0  0  0  0
  1 28  1  0  0  0  0
  2  7  1  0  0  0  0
  2  3  1  0  0  0  0
  2 50  1  0  0  0  0
  3  4  1  0  0  0  0
  3 29  1  0  0  0  0
  3 30  1  0  0  0  0
  4  5  1  0  0  0  0
  4 31  1  0  0  0  0
  4 32  1  0  0  0  0
  5  6  1  0  0  0  0
  5  8  1  0  0  0  0
  6  7  1  0  0  0  0
  6 33  1  0  0  0  0
  6 34  1  0  0  0  0
  7 35  1  0  0  0  0
  7 36  1  0  0  0  0
  8  9  1  0  0  0  0
  8 37  1  0  0  0  0
  8 38  1  0  0  0  0
  9 10  1  0  0  0  0
  9 39  1  0  0  0  0
  9 40  1  0  0  0  0
 10 11  1  0  0  0  0
 10 41  1  0  0  0  0
 10 42  1  0  0  0  0
 11 20  1  0  0  0  0
 11 12  1  0  0  0  0
 12 17  2  0  0  0  0
 12 13  1  0  0  0  0
 13 14  2  0  0  0  0
 13 43  1  0  0  0  0
 14 15  1  0  0  0  0
 14 44  1  0  0  0  0
 15 16  2  0  0  0  0
 15 45  1  0  0  0  0
 16 17  1  0  0  0  0
 16 46  1  0  0  0  0
 17 18  1  0  0  0  0
 18 19  1  0  0  0  0
 19 24  2  0  0  0  0
 19 20  1  0  0  0  0
 20 21  2  0  0  0  0
 21 22  1  0  0  0  0
 21 47  1  0  0  0  0
 22 23  2  0  0  0  0
 22 25  1  0  0  0  0
 23 24  1  0  0  0  0
 23 48  1  0  0  0  0
 24 49  1  0  0  0  0
M  CHG  1   2   1
M  END
$$$$
