ZINC00527386
 OpenBabel08292219463D

 45 48  0  0  1  0  0  0  0  0999 V2000
   -0.0167    1.3782    0.0096 C   0  0  0  0  0  0  0  0  0  0  0  0
    1.1703    2.0860    0.0021 C   0  0  0  0  0  0  0  0  0  0  0  0
    2.3786    1.4101   -0.0131 C   0  0  0  0  0  0  0  0  0  0  0  0
    2.3962    0.0256   -0.0207 C   0  0  0  0  0  0  0  0  0  0  0  0
    1.2079   -0.6800   -0.0132 C   0  0  0  0  0  0  0  0  0  0  0  0
    0.0021   -0.0041    0.0020 C   0  0  0  0  0  0  0  0  0  0  0  0
   -1.2930   -0.7747    0.0103 C   0  0  2  0  0  0  0  0  0  0  0  0
   -2.1314   -0.0783    0.0220 H   0  0  0  0  0  0  0  0  0  0  0  0
   -1.3504   -1.6663    1.2540 C   0  0  0  0  0  0  0  0  0  0  0  0
   -2.6302   -2.5042    1.2156 C   0  0  0  0  0  0  0  0  0  0  0  0
   -2.6348   -3.3421    0.0104 N   0  3  0  0  0  0  0  0  0  0  0  0
   -2.6523   -2.4927   -1.1866 C   0  0  0  0  0  0  0  0  0  0  0  0
   -1.3743   -1.6529   -1.2416 C   0  0  1  0  0  0  0  0  0  0  0  0
   -0.5077   -2.3130   -1.2801 H   0  0  0  0  0  0  0  0  0  0  0  0
   -1.3973   -0.7654   -2.4877 C   0  0  0  0  0  0  0  0  0  0  0  0
   -1.3556   -1.5854   -3.6573 O   0  0  0  0  0  0  0  0  0  0  0  0
   -1.3694   -0.9484   -4.8586 C   0  0  0  0  0  0  0  0  0  0  0  0
   -1.4163    0.4369   -4.9082 C   0  0  0  0  0  0  0  0  0  0  0  0
   -1.4304    1.0865   -6.1281 C   0  0  0  0  0  0  0  0  0  0  0  0
   -1.3978    0.3558   -7.3046 C   0  0  0  0  0  0  0  0  0  0  0  0
   -1.3507   -1.0351   -7.2573 C   0  0  0  0  0  0  0  0  0  0  0  0
   -1.3310   -1.6838   -6.0334 C   0  0  0  0  0  0  0  0  0  0  0  0
   -1.3260   -1.5147   -8.5352 O   0  0  0  0  0  0  0  0  0  0  0  0
   -1.7704   -0.4244   -9.3640 C   0  0  0  0  0  0  0  0  0  0  0  0
   -1.4025    0.7478   -8.6132 O   0  0  0  0  0  0  0  0  0  0  0  0
    3.5396    2.1009   -0.0209 F   0  0  0  0  0  0  0  0  0  0  0  0
   -0.9592    1.9052    0.0260 H   0  0  0  0  0  0  0  0  0  0  0  0
    1.1554    3.1659    0.0077 H   0  0  0  0  0  0  0  0  0  0  0  0
    3.3381   -0.5027   -0.0329 H   0  0  0  0  0  0  0  0  0  0  0  0
    1.2213   -1.7599   -0.0195 H   0  0  0  0  0  0  0  0  0  0  0  0
   -0.4833   -2.3267    1.2687 H   0  0  0  0  0  0  0  0  0  0  0  0
   -1.3497   -1.0436    2.1486 H   0  0  0  0  0  0  0  0  0  0  0  0
   -2.6744   -3.1401    2.0998 H   0  0  0  0  0  0  0  0  0  0  0  0
   -3.4966   -1.8429    1.2011 H   0  0  0  0  0  0  0  0  0  0  0  0
   -1.8072   -3.9191    0.0000 H   0  0  0  0  0  0  0  0  0  0  0  0
   -2.7128   -3.1202   -2.0759 H   0  0  0  0  0  0  0  0  0  0  0  0
   -3.5182   -1.8317   -1.1499 H   0  0  0  0  0  0  0  0  0  0  0  0
   -2.3107   -0.1706   -2.4933 H   0  0  0  0  0  0  0  0  0  0  0  0
   -0.5321   -0.1026   -2.4777 H   0  0  0  0  0  0  0  0  0  0  0  0
   -1.4421    1.0088   -3.9923 H   0  0  0  0  0  0  0  0  0  0  0  0
   -1.4672    2.1652   -6.1642 H   0  0  0  0  0  0  0  0  0  0  0  0
   -1.2900   -2.7623   -5.9944 H   0  0  0  0  0  0  0  0  0  0  0  0
   -1.2571   -0.4402  -10.3254 H   0  0  0  0  0  0  0  0  0  0  0  0
   -2.8505   -0.4658   -9.5047 H   0  0  0  0  0  0  0  0  0  0  0  0
   -3.4535   -3.9318    0.0151 H   0  0  0  0  0  0  0  0  0  0  0  0
  1  6  2  0  0  0  0
  1  2  1  0  0  0  0
  1 27  1  0  0  0  0
  2  3  2  0  0  0  0
  2 28  1  0  0  0  0
  3  4  1  0  0  0  0
  3 26  1  0  0  0  0
  4  5  2  0  0  0  0
  4 29  1  0  0  0  0
  5  6  1  0  0  0  0
  5 30  1  0  0  0  0
  6  7  1  0  0  0  0
  7  8  1  1  0  0  0
  7 13  1  0  0  0  0
  7  9  1  0  0  0  0
  9 10  1  0  0  0  0
  9 31  1  0  0  0  0
  9 32  1  0  0  0  0
 10 11  1  0  0  0  0
 10 33  1  0  0  0  0
 10 34  1  0  0  0  0
 11 12  1  0  0  0  0
 11 35  1  0  0  0  0
 11 45  1  0  0  0  0
 12 13  1  0  0  0  0
 12 36  1  0  0  0  0
 12 37  1  0  0  0  0
 13 14  1  6  0  0  0
 13 15  1  0  0  0  0
 15 16  1  0  0  0  0
 15 38  1  0  0  0  0
 15 39  1  0  0  0  0
 16 17  1  0  0  0  0
 17 22  2  0  0  0  0
 17 18  1  0  0  0  0
 18 19  2  0  0  0  0
 18 40  1  0  0  0  0
 19 20  1  0  0  0  0
 19 41  1  0  0  0  0
 20 25  1  0  0  0  0
 20 21  2  0  0  0  0
 21 22  1  0  0  0  0
 21 23  1  0  0  0  0
 22 42  1  0  0  0  0
 23 24  1  0  0  0  0
 24 25  1  0  0  0  0
 24 43  1  0  0  0  0
 24 44  1  0  0  0  0
M  CHG  1  11   1
M  END
$$$$
