ZINC30691420
 OpenBabel08292219463D

 57 60  0  0  1  0  0  0  0  0999 V2000
    0.9734   -0.3744    1.7354 C   0  0  0  0  0  0  0  0  0  0  0  0
   -0.2608    0.5288    1.7762 C   0  0  2  0  0  0  0  0  0  0  0  0
   -0.3462    1.0010    0.7864 H   0  0  0  0  0  0  0  0  0  0  0  0
   -0.1125    1.5833    2.9065 C   0  0  0  0  0  0  0  0  0  0  0  0
   -0.8548    0.9345    4.0803 C   0  0  1  0  0  0  0  0  0  0  0  0
   -0.1756    0.2551    4.6161 H   0  0  0  0  0  0  0  0  0  0  0  0
   -1.3726    1.9041    5.1545 C   0  0  2  0  0  0  0  0  0  0  0  0
   -2.0195    2.6844    4.7272 H   0  0  0  0  0  0  0  0  0  0  0  0
   -0.1732    2.5729    5.8330 C   0  0  1  0  0  0  0  0  0  0  0  0
    0.2843    3.1897    5.0455 H   0  0  0  0  0  0  0  0  0  0  0  0
   -0.6883    3.5637    6.8820 C   0  0  0  0  0  0  0  0  0  0  0  0
   -1.5971    2.8109    7.8358 C   0  0  0  0  0  0  0  0  0  0  0  0
   -1.3714    2.8979    9.1393 C   0  0  0  0  0  0  0  0  0  0  0  0
   -2.2079    2.1550   10.0945 C   0  0  0  0  0  0  0  0  0  0  0  0
   -2.0246    2.2574   11.2931 O   0  0  0  0  0  0  0  0  0  0  0  0
   -3.2720    1.2841    9.5670 C   0  0  0  0  0  0  0  0  0  0  0  0
   -3.4671    1.2156    8.2730 C   0  0  0  0  0  0  0  0  0  0  0  0
   -2.7059    1.9877    7.2502 C   0  0  2  0  0  0  0  0  0  0  0  0
   -2.1331    1.0509    6.1821 C   0  0  1  0  0  0  0  0  0  0  0  0
   -1.4420    0.3180    6.6241 H   0  0  0  0  0  0  0  0  0  0  0  0
   -3.2713    0.2689    5.5337 C   0  0  2  0  0  0  0  0  0  0  0  0
   -3.7629   -0.3618    6.2891 H   0  0  0  0  0  0  0  0  0  0  0  0
   -2.7739   -0.5936    4.3628 C   0  0  0  0  0  0  0  0  0  0  0  0
   -2.1019    0.3390    3.3733 C   0  0  2  0  0  0  0  0  0  0  0  0
   -1.5196   -0.3061    2.1197 C   0  0  1  0  0  0  0  0  0  0  0  0
   -2.5139   -0.2411    0.9891 C   0  0  0  0  0  0  0  0  0  0  0  0
   -2.4949    0.6907    0.2212 O   0  0  0  0  0  0  0  0  0  0  0  0
   -3.5319   -1.3389    0.8169 C   0  0  0  0  0  0  0  0  0  0  0  0
   -4.3546   -1.0521   -0.3158 O   0  0  0  0  0  0  0  0  0  0  0  0
   -1.1589   -1.6635    2.3833 O   0  0  0  0  0  0  0  0  0  0  0  0
   -3.0662    1.4598    2.9799 C   0  0  0  0  0  0  0  0  0  0  0  0
   -4.2528    1.1886    5.0510 O   0  0  0  0  0  0  0  0  0  0  0  0
   -3.6828    2.9413    6.5593 C   0  0  0  0  0  0  0  0  0  0  0  0
    0.8598    1.3321    6.6355 Cl  0  0  0  0  0  0  0  0  0  0  0  0
    1.8607    0.2280    1.4909 H   0  0  0  0  0  0  0  0  0  0  0  0
    0.8345   -1.1506    0.9685 H   0  0  0  0  0  0  0  0  0  0  0  0
    1.1123   -0.8500    2.7175 H   0  0  0  0  0  0  0  0  0  0  0  0
    0.9546    1.7461    3.1184 H   0  0  0  0  0  0  0  0  0  0  0  0
   -0.5715    2.5305    2.5869 H   0  0  0  0  0  0  0  0  0  0  0  0
    0.1633    3.9934    7.4299 H   0  0  0  0  0  0  0  0  0  0  0  0
   -1.2469    4.3690    6.3826 H   0  0  0  0  0  0  0  0  0  0  0  0
   -0.5529    3.5296    9.5148 H   0  0  0  0  0  0  0  0  0  0  0  0
   -3.9006    0.6939   10.2500 H   0  0  0  0  0  0  0  0  0  0  0  0
   -4.2429    0.5490    7.8683 H   0  0  0  0  0  0  0  0  0  0  0  0
   -2.0593   -1.3419    4.7363 H   0  0  0  0  0  0  0  0  0  0  0  0
   -3.6283   -1.1042    3.8946 H   0  0  0  0  0  0  0  0  0  0  0  0
   -3.0149   -2.2973    0.6614 H   0  0  0  0  0  0  0  0  0  0  0  0
   -4.1586   -1.4025    1.7186 H   0  0  0  0  0  0  0  0  0  0  0  0
   -5.1599   -1.7453   -0.6003 H   0  0  0  0  0  0  0  0  0  0  0  0
   -1.9349   -2.3979    2.6449 H   0  0  0  0  0  0  0  0  0  0  0  0
   -3.9458    1.0280    2.4801 H   0  0  0  0  0  0  0  0  0  0  0  0
   -2.5598    2.1555    2.2947 H   0  0  0  0  0  0  0  0  0  0  0  0
   -3.3862    2.0016    3.8821 H   0  0  0  0  0  0  0  0  0  0  0  0
   -5.1567    0.8145    4.5479 H   0  0  0  0  0  0  0  0  0  0  0  0
   -4.5092    2.3640    6.1191 H   0  0  0  0  0  0  0  0  0  0  0  0
   -3.1574    3.4930    5.7658 H   0  0  0  0  0  0  0  0  0  0  0  0
   -4.0841    3.6525    7.2963 H   0  0  0  0  0  0  0  0  0  0  0  0
  1  2  1  0  0  0  0
  1 35  1  0  0  0  0
  1 36  1  0  0  0  0
  1 37  1  0  0  0  0
  2  3  1  6  0  0  0
  2 25  1  0  0  0  0
  2  4  1  0  0  0  0
  4  5  1  0  0  0  0
  4 38  1  0  0  0  0
  4 39  1  0  0  0  0
  5  6  1  1  0  0  0
  5 24  1  0  0  0  0
  5  7  1  0  0  0  0
  7  8  1  6  0  0  0
  7 19  1  0  0  0  0
  7  9  1  0  0  0  0
  9 10  1  6  0  0  0
  9 11  1  0  0  0  0
  9 34  1  0  0  0  0
 11 12  1  0  0  0  0
 11 40  1  0  0  0  0
 11 41  1  0  0  0  0
 12 18  1  0  0  0  0
 12 13  2  0  0  0  0
 13 14  1  0  0  0  0
 13 42  1  0  0  0  0
 14 15  2  0  0  0  0
 14 16  1  0  0  0  0
 16 17  2  0  0  0  0
 16 43  1  0  0  0  0
 17 18  1  0  0  0  0
 17 44  1  0  0  0  0
 18 19  1  0  0  0  0
 18 33  1  6  0  0  0
 19 20  1  1  0  0  0
 19 21  1  0  0  0  0
 21 22  1  1  0  0  0
 21 23  1  0  0  0  0
 21 32  1  0  0  0  0
 23 24  1  0  0  0  0
 23 45  1  0  0  0  0
 23 46  1  0  0  0  0
 24 25  1  0  0  0  0
 24 31  1  6  0  0  0
 25 26  1  6  0  0  0
 25 30  1  0  0  0  0
 26 27  2  0  0  0  0
 26 28  1  0  0  0  0
 28 29  1  0  0  0  0
 28 47  1  0  0  0  0
 28 48  1  0  0  0  0
 29 49  1  0  0  0  0
 30 50  1  0  0  0  0
 31 51  1  0  0  0  0
 31 52  1  0  0  0  0
 31 53  1  0  0  0  0
 32 54  1  0  0  0  0
 33 55  1  0  0  0  0
 33 56  1  0  0  0  0
 33 57  1  0  0  0  0
M  END
$$$$
