ZINC00155694
 OpenBabel08292219463D

 29 29  0  0  0  0  0  0  0  0999 V2000
    2.3521   -0.3387   -4.7105 C   0  0  0  0  0  0  0  0  0  0  0  0
    1.9793   -1.5516   -3.8573 C   0  0  0  0  0  0  0  0  0  0  0  0
    1.2941   -1.0896   -2.6362 N   0  0  0  0  0  0  0  0  0  0  0  0
    2.0856    0.0431   -1.7275 P   0  0  2  0  0  0  0  0  0  0  0  0
    1.1250    0.7665   -0.8648 O   0  0  0  0  0  0  0  0  0  0  0  0
    2.7680    1.0681   -2.7871 O   0  0  0  0  0  0  0  0  0  0  0  0
    3.3684    0.5429   -3.9847 C   0  0  0  0  0  0  0  0  0  0  0  0
    3.2390   -0.6749   -0.8090 N   0  0  0  0  0  0  0  0  0  0  0  0
    4.3027   -1.4548   -1.4465 C   0  0  0  0  0  0  0  0  0  0  0  0
    5.6075   -0.6563   -1.4181 C   0  0  0  0  0  0  0  0  0  0  0  0
    6.9167   -1.6161   -2.2028 Cl  0  0  0  0  0  0  0  0  0  0  0  0
    3.2055   -0.5365    0.6491 C   0  0  0  0  0  0  0  0  0  0  0  0
    2.6735   -1.8287    1.2720 C   0  0  0  0  0  0  0  0  0  0  0  0
    2.6323   -1.6583    3.0664 Cl  0  0  0  0  0  0  0  0  0  0  0  0
    2.7815   -0.6808   -5.6521 H   0  0  0  0  0  0  0  0  0  0  0  0
    1.4544    0.2440   -4.9171 H   0  0  0  0  0  0  0  0  0  0  0  0
    1.3151   -2.2049   -4.4230 H   0  0  0  0  0  0  0  0  0  0  0  0
    2.8829   -2.0967   -3.5842 H   0  0  0  0  0  0  0  0  0  0  0  0
    0.4237   -1.4321   -2.3792 H   0  0  0  0  0  0  0  0  0  0  0  0
    4.2443   -0.0506   -3.7230 H   0  0  0  0  0  0  0  0  0  0  0  0
    3.6659    1.3662   -4.6343 H   0  0  0  0  0  0  0  0  0  0  0  0
    4.4387   -2.3924   -0.9076 H   0  0  0  0  0  0  0  0  0  0  0  0
    4.0286   -1.6663   -2.4801 H   0  0  0  0  0  0  0  0  0  0  0  0
    5.4715    0.2813   -1.9571 H   0  0  0  0  0  0  0  0  0  0  0  0
    5.8816   -0.4448   -0.3846 H   0  0  0  0  0  0  0  0  0  0  0  0
    4.2124   -0.3426    1.0188 H   0  0  0  0  0  0  0  0  0  0  0  0
    2.5528    0.2933    0.9204 H   0  0  0  0  0  0  0  0  0  0  0  0
    1.6666   -2.0225    0.9022 H   0  0  0  0  0  0  0  0  0  0  0  0
    3.3262   -2.6584    1.0007 H   0  0  0  0  0  0  0  0  0  0  0  0
  1  7  1  0  0  0  0
  1  2  1  0  0  0  0
  1 15  1  0  0  0  0
  1 16  1  0  0  0  0
  2  3  1  0  0  0  0
  2 17  1  0  0  0  0
  2 18  1  0  0  0  0
  3  4  1  0  0  0  0
  3 19  1  0  0  0  0
  4  5  2  1  0  0  0
  4  6  1  0  0  0  0
  4  8  1  0  0  0  0
  6  7  1  0  0  0  0
  7 20  1  0  0  0  0
  7 21  1  0  0  0  0
  8  9  1  0  0  0  0
  8 12  1  0  0  0  0
  9 10  1  0  0  0  0
  9 22  1  0  0  0  0
  9 23  1  0  0  0  0
 10 11  1  0  0  0  0
 10 24  1  0  0  0  0
 10 25  1  0  0  0  0
 12 13  1  0  0  0  0
 12 26  1  0  0  0  0
 12 27  1  0  0  0  0
 13 14  1  0  0  0  0
 13 28  1  0  0  0  0
 13 29  1  0  0  0  0
M  END
$$$$
