ZINC35653007
 OpenBabel08292219463D

 46 49  0  0  1  0  0  0  0  0999 V2000
   -2.7765   -1.8047    3.7469 C   0  0  0  0  0  0  0  0  0  0  0  0
   -1.8338   -2.4346    2.7541 C   0  0  0  0  0  0  0  0  0  0  0  0
   -0.7309   -1.9621    2.5817 O   0  0  0  0  0  0  0  0  0  0  0  0
   -2.2153   -3.5187    2.0609 O   0  0  0  0  0  0  0  0  0  0  0  0
   -1.3332   -4.0534    1.1765 C   0  0  0  0  0  0  0  0  0  0  0  0
   -1.4833   -5.1315    0.3633 C   0  0  0  0  0  0  0  0  0  0  0  0
   -0.4409   -5.5163   -0.4778 C   0  0  0  0  0  0  0  0  0  0  0  0
    0.6932   -4.7642   -0.4262 C   0  0  0  0  0  0  0  0  0  0  0  0
    0.3235   -3.5171    0.7748 S   0  0  0  0  0  0  0  0  0  0  0  0
    1.9403   -4.9748   -1.2217 C   0  0  0  0  0  0  0  0  0  0  0  0
    1.8660   -6.3785   -1.8461 C   0  0  0  0  0  0  0  0  0  0  0  0
    0.5364   -6.5602   -2.4456 N   0  0  0  0  0  0  0  0  0  0  0  0
   -0.5119   -6.7081   -1.4281 C   0  0  0  0  0  0  0  0  0  0  0  0
    0.5297   -7.6958   -3.3773 C   0  0  1  0  0  0  0  0  0  0  0  0
    0.8556   -8.5957   -2.8557 H   0  0  0  0  0  0  0  0  0  0  0  0
   -0.8653   -7.9010   -3.9092 C   0  0  0  0  0  0  0  0  0  0  0  0
   -1.4103   -9.1706   -3.9491 C   0  0  0  0  0  0  0  0  0  0  0  0
   -2.6898   -9.3591   -4.4369 C   0  0  0  0  0  0  0  0  0  0  0  0
   -3.4260   -8.2781   -4.8855 C   0  0  0  0  0  0  0  0  0  0  0  0
   -2.8835   -7.0079   -4.8461 C   0  0  0  0  0  0  0  0  0  0  0  0
   -1.6037   -6.8172   -4.3528 C   0  0  0  0  0  0  0  0  0  0  0  0
   -1.0740   -5.5751   -4.3095 F   0  0  0  0  0  0  0  0  0  0  0  0
    1.4672   -7.4116   -4.5225 C   0  0  0  0  0  0  0  0  0  0  0  0
    1.8669   -6.2878   -4.7109 O   0  0  0  0  0  0  0  0  0  0  0  0
    1.9059   -8.5299   -5.4324 C   0  0  0  0  0  0  0  0  0  0  0  0
    3.3849   -8.5862   -5.8201 C   0  0  0  0  0  0  0  0  0  0  0  0
    2.3395   -8.1570   -6.8515 C   0  0  0  0  0  0  0  0  0  0  0  0
   -3.3791   -1.0472    3.2457 H   0  0  0  0  0  0  0  0  0  0  0  0
   -3.4297   -2.5710    4.1643 H   0  0  0  0  0  0  0  0  0  0  0  0
   -2.2026   -1.3404    4.5489 H   0  0  0  0  0  0  0  0  0  0  0  0
   -2.4082   -5.6891    0.3690 H   0  0  0  0  0  0  0  0  0  0  0  0
    2.0078   -4.2236   -2.0086 H   0  0  0  0  0  0  0  0  0  0  0  0
    2.8107   -4.9064   -0.5692 H   0  0  0  0  0  0  0  0  0  0  0  0
    2.6307   -6.4765   -2.6167 H   0  0  0  0  0  0  0  0  0  0  0  0
    2.0244   -7.1309   -1.0735 H   0  0  0  0  0  0  0  0  0  0  0  0
   -0.3523   -7.6308   -0.8703 H   0  0  0  0  0  0  0  0  0  0  0  0
   -1.4891   -6.7336   -1.9104 H   0  0  0  0  0  0  0  0  0  0  0  0
   -0.8360  -10.0157   -3.5994 H   0  0  0  0  0  0  0  0  0  0  0  0
   -3.1146  -10.3515   -4.4681 H   0  0  0  0  0  0  0  0  0  0  0  0
   -4.4254   -8.4266   -5.2671 H   0  0  0  0  0  0  0  0  0  0  0  0
   -3.4586   -6.1637   -5.1968 H   0  0  0  0  0  0  0  0  0  0  0  0
    1.3840   -9.4774   -5.2982 H   0  0  0  0  0  0  0  0  0  0  0  0
    4.0406   -7.8145   -5.4170 H   0  0  0  0  0  0  0  0  0  0  0  0
    3.8364   -9.5710   -5.9409 H   0  0  0  0  0  0  0  0  0  0  0  0
    2.1032   -8.8594   -7.6509 H   0  0  0  0  0  0  0  0  0  0  0  0
    2.3074   -7.1029   -7.1270 H   0  0  0  0  0  0  0  0  0  0  0  0
  1  2  1  0  0  0  0
  1 28  1  0  0  0  0
  1 29  1  0  0  0  0
  1 30  1  0  0  0  0
  2  3  2  0  0  0  0
  2  4  1  0  0  0  0
  4  5  1  0  0  0  0
  5  9  1  0  0  0  0
  5  6  2  0  0  0  0
  6  7  1  0  0  0  0
  6 31  1  0  0  0  0
  7 13  1  0  0  0  0
  7  8  2  0  0  0  0
  8  9  1  0  0  0  0
  8 10  1  0  0  0  0
 10 11  1  0  0  0  0
 10 32  1  0  0  0  0
 10 33  1  0  0  0  0
 11 12  1  0  0  0  0
 11 34  1  0  0  0  0
 11 35  1  0  0  0  0
 12 13  1  0  0  0  0
 12 14  1  0  0  0  0
 13 36  1  0  0  0  0
 13 37  1  0  0  0  0
 14 15  1  1  0  0  0
 14 16  1  0  0  0  0
 14 23  1  0  0  0  0
 16 21  2  0  0  0  0
 16 17  1  0  0  0  0
 17 18  2  0  0  0  0
 17 38  1  0  0  0  0
 18 19  1  0  0  0  0
 18 39  1  0  0  0  0
 19 20  2  0  0  0  0
 19 40  1  0  0  0  0
 20 21  1  0  0  0  0
 20 41  1  0  0  0  0
 21 22  1  0  0  0  0
 23 24  2  0  0  0  0
 23 25  1  0  0  0  0
 25 27  1  0  0  0  0
 25 26  1  0  0  0  0
 25 42  1  0  0  0  0
 26 27  1  0  0  0  0
 26 43  1  0  0  0  0
 26 44  1  0  0  0  0
 27 45  1  0  0  0  0
 27 46  1  0  0  0  0
M  END
$$$$
