ZINC00896648
 OpenBabel08292219463D

 30 31  0  0  1  0  0  0  0  0999 V2000
   -0.0187    1.5258    0.0104 C   0  0  0  0  0  0  0  0  0  0  0  0
    0.0021   -0.0041    0.0020 C   0  0  0  0  0  0  0  0  0  0  0  0
    0.7421   -0.5109    1.2415 C   0  0  2  0  0  0  0  0  0  0  0  0
    0.0547   -0.0335    2.5054 C   0  0  0  0  0  0  0  0  0  0  0  0
   -1.0761   -0.2843    2.8634 O   0  0  0  0  0  0  0  0  0  0  0  0
    0.9624    0.7271    3.1487 N   0  0  0  0  0  0  0  0  0  0  0  0
    2.1157    0.7959    2.4740 C   0  0  0  0  0  0  0  0  0  0  0  0
    3.0846    1.4232    2.8545 O   0  0  0  0  0  0  0  0  0  0  0  0
    2.0831    0.0928    1.3276 N   0  0  0  0  0  0  0  0  0  0  0  0
    0.7164    1.3967    4.4283 C   0  0  0  0  0  0  0  0  0  0  0  0
    0.8379   -2.0147    1.2219 C   0  0  0  0  0  0  0  0  0  0  0  0
   -0.1456   -2.7619    0.6011 C   0  0  0  0  0  0  0  0  0  0  0  0
   -0.0577   -4.1413    0.5831 C   0  0  0  0  0  0  0  0  0  0  0  0
    1.0138   -4.7736    1.1856 C   0  0  0  0  0  0  0  0  0  0  0  0
    1.9977   -4.0264    1.8056 C   0  0  0  0  0  0  0  0  0  0  0  0
    1.9121   -2.6467    1.8199 C   0  0  0  0  0  0  0  0  0  0  0  0
    1.0039    1.9031    0.0027 H   0  0  0  0  0  0  0  0  0  0  0  0
   -0.5459    1.8868   -0.8726 H   0  0  0  0  0  0  0  0  0  0  0  0
   -0.5289    1.8773    0.9072 H   0  0  0  0  0  0  0  0  0  0  0  0
   -1.0205   -0.3814    0.0098 H   0  0  0  0  0  0  0  0  0  0  0  0
    0.5123   -0.3556   -0.8948 H   0  0  0  0  0  0  0  0  0  0  0  0
    2.8024    0.0009    0.6833 H   0  0  0  0  0  0  0  0  0  0  0  0
    0.9967    0.7324    5.2458 H   0  0  0  0  0  0  0  0  0  0  0  0
    1.3107    2.3088    4.4813 H   0  0  0  0  0  0  0  0  0  0  0  0
   -0.3414    1.6469    4.5100 H   0  0  0  0  0  0  0  0  0  0  0  0
   -0.9828   -2.2680    0.1304 H   0  0  0  0  0  0  0  0  0  0  0  0
   -0.8264   -4.7251    0.0987 H   0  0  0  0  0  0  0  0  0  0  0  0
    1.0821   -5.8513    1.1722 H   0  0  0  0  0  0  0  0  0  0  0  0
    2.8347   -4.5203    2.2766 H   0  0  0  0  0  0  0  0  0  0  0  0
    2.6827   -2.0628    2.3011 H   0  0  0  0  0  0  0  0  0  0  0  0
  1  2  1  0  0  0  0
  1 17  1  0  0  0  0
  1 18  1  0  0  0  0
  1 19  1  0  0  0  0
  2 20  1  0  0  0  0
  2 21  1  0  0  0  0
  3  2  1  6  0  0  0
  3  9  1  0  0  0  0
  3  4  1  0  0  0  0
  3 11  1  0  0  0  0
  4  5  2  0  0  0  0
  4  6  1  0  0  0  0
  6  7  1  0  0  0  0
  6 10  1  0  0  0  0
  7  8  2  0  0  0  0
  7  9  1  0  0  0  0
  9 22  1  0  0  0  0
 10 23  1  0  0  0  0
 10 24  1  0  0  0  0
 10 25  1  0  0  0  0
 11 16  2  0  0  0  0
 11 12  1  0  0  0  0
 12 13  2  0  0  0  0
 12 26  1  0  0  0  0
 13 14  1  0  0  0  0
 13 27  1  0  0  0  0
 14 15  2  0  0  0  0
 14 28  1  0  0  0  0
 15 16  1  0  0  0  0
 15 29  1  0  0  0  0
 16 30  1  0  0  0  0
M  END
$$$$
