ZINC03831404
 OpenBabel08292219463D

 49 52  0  0  1  0  0  0  0  0999 V2000
   -0.1447    1.4498   -0.0358 C   0  0  0  0  0  0  0  0  0  0  0  0
   -0.0967    0.0216   -0.0342 O   0  0  0  0  0  0  0  0  0  0  0  0
   -1.2860   -0.6357   -0.0187 C   0  0  0  0  0  0  0  0  0  0  0  0
   -2.4789    0.0940   -0.0111 C   0  0  0  0  0  0  0  0  0  0  0  0
   -3.6845   -0.5346    0.0043 C   0  0  0  0  0  0  0  0  0  0  0  0
   -3.7405   -1.9399    0.0128 C   0  0  0  0  0  0  0  0  0  0  0  0
   -2.5314   -2.6796    0.0051 C   0  0  0  0  0  0  0  0  0  0  0  0
   -1.3026   -2.0016   -0.0164 C   0  0  0  0  0  0  0  0  0  0  0  0
   -2.5916   -4.0858    0.0136 C   0  0  0  0  0  0  0  0  0  0  0  0
   -3.8225   -4.6782    0.0291 C   0  0  0  0  0  0  0  0  0  0  0  0
   -4.9722   -3.8919    0.0360 C   0  0  0  0  0  0  0  0  0  0  0  0
   -4.9125   -2.5823    0.0276 N   0  0  0  0  0  0  0  0  0  0  0  0
   -1.3332   -4.9149    0.0054 C   0  0  2  0  0  0  0  0  0  0  0  0
   -0.5607   -4.4085    0.5842 H   0  0  0  0  0  0  0  0  0  0  0  0
   -0.8529   -5.0986   -1.4356 C   0  0  2  0  0  0  0  0  0  0  0  0
   -0.7983   -4.1263   -1.9253 H   0  0  0  0  0  0  0  0  0  0  0  0
   -1.8399   -5.9924   -2.1898 C   0  0  0  0  0  0  0  0  0  0  0  0
   -1.0973   -7.2389   -2.6887 C   0  0  2  0  0  0  0  0  0  0  0  0
   -1.7779   -7.8894   -3.2381 H   0  0  0  0  0  0  0  0  0  0  0  0
   -0.5209   -7.9775   -1.4735 C   0  0  0  0  0  0  0  0  0  0  0  0
    0.4178   -7.0320   -0.7208 C   0  0  0  0  0  0  0  0  0  0  0  0
    0.4758   -5.7154   -1.4301 N   0  3  1  0  0  0  0  0  0  0  0  0
    0.9787   -5.8686   -2.7973 C   0  0  0  0  0  0  0  0  0  0  0  0
    0.0537   -6.7856   -3.5964 C   0  0  2  0  0  0  0  0  0  0  0  0
    0.6118   -7.6562   -3.9410 H   0  0  0  0  0  0  0  0  0  0  0  0
   -0.5018   -6.0374   -4.7808 C   0  0  0  0  0  0  0  0  0  0  0  0
   -0.2814   -6.4766   -5.9951 C   0  0  0  0  0  0  0  0  0  0  0  0
   -1.6013   -6.1934    0.5848 O   0  0  0  0  0  0  0  0  0  0  0  0
    0.8701    1.8474   -0.0487 H   0  0  0  0  0  0  0  0  0  0  0  0
   -0.6812    1.7943   -0.9198 H   0  0  0  0  0  0  0  0  0  0  0  0
   -0.6596    1.7970    0.8600 H   0  0  0  0  0  0  0  0  0  0  0  0
   -2.4420    1.1733   -0.0172 H   0  0  0  0  0  0  0  0  0  0  0  0
   -4.5966    0.0437    0.0104 H   0  0  0  0  0  0  0  0  0  0  0  0
   -0.3760   -2.5563   -0.0272 H   0  0  0  0  0  0  0  0  0  0  0  0
   -3.9040   -5.7551    0.0355 H   0  0  0  0  0  0  0  0  0  0  0  0
   -5.9386   -4.3739    0.0482 H   0  0  0  0  0  0  0  0  0  0  0  0
   -2.6468   -6.2912   -1.5208 H   0  0  0  0  0  0  0  0  0  0  0  0
   -2.2504   -5.4472   -3.0397 H   0  0  0  0  0  0  0  0  0  0  0  0
   -1.3328   -8.2868   -0.8152 H   0  0  0  0  0  0  0  0  0  0  0  0
    0.0344   -8.8537   -1.8082 H   0  0  0  0  0  0  0  0  0  0  0  0
    0.0547   -6.8971    0.2980 H   0  0  0  0  0  0  0  0  0  0  0  0
    1.4186   -7.4630   -0.6922 H   0  0  0  0  0  0  0  0  0  0  0  0
    1.0234   -4.8913   -3.2779 H   0  0  0  0  0  0  0  0  0  0  0  0
    1.9786   -6.3016   -2.7684 H   0  0  0  0  0  0  0  0  0  0  0  0
   -1.0815   -5.1390   -4.6284 H   0  0  0  0  0  0  0  0  0  0  0  0
    0.2983   -7.3750   -6.1475 H   0  0  0  0  0  0  0  0  0  0  0  0
   -0.6795   -5.9404   -6.8438 H   0  0  0  0  0  0  0  0  0  0  0  0
   -2.2806   -6.7011    0.1201 H   0  0  0  0  0  0  0  0  0  0  0  0
    1.1080   -5.1073   -0.9315 H   0  0  0  0  0  0  0  0  0  0  0  0
  1  2  1  0  0  0  0
  1 29  1  0  0  0  0
  1 30  1  0  0  0  0
  1 31  1  0  0  0  0
  2  3  1  0  0  0  0
  3  8  2  0  0  0  0
  3  4  1  0  0  0  0
  4  5  2  0  0  0  0
  4 32  1  0  0  0  0
  5  6  1  0  0  0  0
  5 33  1  0  0  0  0
  6 12  2  0  0  0  0
  6  7  1  0  0  0  0
  7  8  1  0  0  0  0
  7  9  2  0  0  0  0
  8 34  1  0  0  0  0
  9 10  1  0  0  0  0
  9 13  1  0  0  0  0
 10 11  2  0  0  0  0
 10 35  1  0  0  0  0
 11 12  1  0  0  0  0
 11 36  1  0  0  0  0
 13 14  1  1  0  0  0
 13 15  1  0  0  0  0
 13 28  1  0  0  0  0
 15 16  1  6  0  0  0
 15 22  1  0  0  0  0
 15 17  1  0  0  0  0
 17 18  1  0  0  0  0
 17 37  1  0  0  0  0
 17 38  1  0  0  0  0
 18 19  1  6  0  0  0
 18 24  1  0  0  0  0
 18 20  1  0  0  0  0
 20 21  1  0  0  0  0
 20 39  1  0  0  0  0
 20 40  1  0  0  0  0
 21 22  1  0  0  0  0
 21 41  1  0  0  0  0
 21 42  1  0  0  0  0
 22 23  1  0  0  0  0
 22 49  1  1  0  0  0
 23 24  1  0  0  0  0
 23 43  1  0  0  0  0
 23 44  1  0  0  0  0
 24 25  1  6  0  0  0
 24 26  1  0  0  0  0
 26 27  2  0  0  0  0
 26 45  1  0  0  0  0
 27 46  1  0  0  0  0
 27 47  1  0  0  0  0
 28 48  1  0  0  0  0
M  CHG  1  22   1
M  END
$$$$
