ZINC02525885
 OpenBabel08292219463D

 45 46  0  0  1  0  0  0  0  0999 V2000
    2.5905   -0.6841    2.2375 C   0  0  0  0  0  0  0  0  0  0  0  0
    3.6068    1.1716    3.4149 C   0  0  0  0  0  0  0  0  0  0  0  0
    3.3210    1.2726    1.0126 C   0  0  0  0  0  0  0  0  0  0  0  0
    2.2252    1.2856   -0.0551 C   0  0  1  0  0  0  0  0  0  0  0  0
    1.8139    0.2822   -0.1658 H   0  0  0  0  0  0  0  0  0  0  0  0
    1.1304    2.2343    0.3602 C   0  0  0  0  0  0  0  0  0  0  0  0
   -0.1942    1.8636    0.2194 C   0  0  0  0  0  0  0  0  0  0  0  0
   -1.1997    2.7337    0.5941 C   0  0  0  0  0  0  0  0  0  0  0  0
   -0.8793    3.9758    1.1224 C   0  0  0  0  0  0  0  0  0  0  0  0
    0.4505    4.3452    1.2630 C   0  0  0  0  0  0  0  0  0  0  0  0
    1.4522    3.4737    0.8816 C   0  0  0  0  0  0  0  0  0  0  0  0
   -1.8666    4.8315    1.4965 O   0  0  0  0  0  0  0  0  0  0  0  0
    2.8183    1.7437   -1.3890 C   0  0  0  0  0  0  0  0  0  0  0  0
    3.3988    3.1506   -1.2327 C   0  0  0  0  0  0  0  0  0  0  0  0
    3.9919    3.6087   -2.5666 C   0  0  0  0  0  0  0  0  0  0  0  0
    2.8953    3.6251   -3.6334 C   0  0  0  0  0  0  0  0  0  0  0  0
    2.3148    2.2182   -3.7898 C   0  0  0  0  0  0  0  0  0  0  0  0
    1.7217    1.7601   -2.4559 C   0  0  0  0  0  0  0  0  0  0  0  0
    3.8541    0.8422   -1.7844 O   0  0  0  0  0  0  0  0  0  0  0  0
    3.5554   -1.1615    2.0668 H   0  0  0  0  0  0  0  0  0  0  0  0
    2.1783   -1.0270    3.1865 H   0  0  0  0  0  0  0  0  0  0  0  0
    1.9077   -0.9456    1.4291 H   0  0  0  0  0  0  0  0  0  0  0  0
    3.5991    2.2574    3.5102 H   0  0  0  0  0  0  0  0  0  0  0  0
    3.2173    0.7238    4.3291 H   0  0  0  0  0  0  0  0  0  0  0  0
    4.6281    0.8286    3.2489 H   0  0  0  0  0  0  0  0  0  0  0  0
    4.1340    0.6218    0.6910 H   0  0  0  0  0  0  0  0  0  0  0  0
    3.7004    2.2843    1.1561 H   0  0  0  0  0  0  0  0  0  0  0  0
   -0.4430    0.8948   -0.1878 H   0  0  0  0  0  0  0  0  0  0  0  0
   -2.2342    2.4456    0.4795 H   0  0  0  0  0  0  0  0  0  0  0  0
    0.7024    5.3131    1.6706 H   0  0  0  0  0  0  0  0  0  0  0  0
    2.4876    3.7609    0.9905 H   0  0  0  0  0  0  0  0  0  0  0  0
   -2.1620    5.4236    0.7913 H   0  0  0  0  0  0  0  0  0  0  0  0
    2.6087    3.8382   -0.9310 H   0  0  0  0  0  0  0  0  0  0  0  0
    4.1800    3.1389   -0.4726 H   0  0  0  0  0  0  0  0  0  0  0  0
    4.7820    2.9210   -2.8682 H   0  0  0  0  0  0  0  0  0  0  0  0
    4.4055    4.6110   -2.4552 H   0  0  0  0  0  0  0  0  0  0  0  0
    3.3178    3.9515   -4.5837 H   0  0  0  0  0  0  0  0  0  0  0  0
    2.1052    4.3128   -3.3318 H   0  0  0  0  0  0  0  0  0  0  0  0
    3.1049    1.5306   -4.0914 H   0  0  0  0  0  0  0  0  0  0  0  0
    1.5336    2.2299   -4.5498 H   0  0  0  0  0  0  0  0  0  0  0  0
    1.3081    0.7578   -2.5672 H   0  0  0  0  0  0  0  0  0  0  0  0
    0.9316    2.4478   -2.1542 H   0  0  0  0  0  0  0  0  0  0  0  0
    4.2760    1.0716   -2.6237 H   0  0  0  0  0  0  0  0  0  0  0  0
    2.7400    0.7857    2.2815 N   0  3  0  0  0  0  0  0  0  0  0  0
    1.8144    1.2114    2.4095 H   0  0  0  0  0  0  0  0  0  0  0  0
  1 20  1  0  0  0  0
  1 21  1  0  0  0  0
  1 22  1  0  0  0  0
  1 44  1  0  0  0  0
  2 23  1  0  0  0  0
  2 24  1  0  0  0  0
  2 25  1  0  0  0  0
  2 44  1  0  0  0  0
  3  4  1  0  0  0  0
  3 26  1  0  0  0  0
  3 27  1  0  0  0  0
  3 44  1  0  0  0  0
  4  5  1  6  0  0  0
  4  6  1  0  0  0  0
  4 13  1  0  0  0  0
  6 11  2  0  0  0  0
  6  7  1  0  0  0  0
  7  8  2  0  0  0  0
  7 28  1  0  0  0  0
  8  9  1  0  0  0  0
  8 29  1  0  0  0  0
  9 10  2  0  0  0  0
  9 12  1  0  0  0  0
 10 11  1  0  0  0  0
 10 30  1  0  0  0  0
 11 31  1  0  0  0  0
 12 32  1  0  0  0  0
 13 18  1  0  0  0  0
 13 14  1  0  0  0  0
 13 19  1  0  0  0  0
 14 15  1  0  0  0  0
 14 33  1  0  0  0  0
 14 34  1  0  0  0  0
 15 16  1  0  0  0  0
 15 35  1  0  0  0  0
 15 36  1  0  0  0  0
 16 17  1  0  0  0  0
 16 37  1  0  0  0  0
 16 38  1  0  0  0  0
 17 18  1  0  0  0  0
 17 39  1  0  0  0  0
 17 40  1  0  0  0  0
 18 41  1  0  0  0  0
 18 42  1  0  0  0  0
 19 43  1  0  0  0  0
 44 45  1  0  0  0  0
M  CHG  1  44   1
M  END
$$$$
