ZINC04097309
 OpenBabel08292219463D

 84 86  0  0  1  0  0  0  0  0999 V2000
   -1.4332   -3.4890   -3.5774 C   0  0  0  0  0  0  0  0  0  0  0  0
   -0.6380   -2.4973   -4.4290 C   0  0  0  0  0  0  0  0  0  0  0  0
    0.6829   -2.2097   -3.7631 C   0  0  0  0  0  0  0  0  0  0  0  0
    0.9600   -2.7432   -2.7150 O   0  0  0  0  0  0  0  0  0  0  0  0
    1.5517   -1.3608   -4.3343 O   0  0  0  0  0  0  0  0  0  0  0  0
    2.7444   -1.0286   -3.5757 C   0  0  1  0  0  0  0  0  0  0  0  0
    3.1578   -1.9349   -3.1333 H   0  0  0  0  0  0  0  0  0  0  0  0
    3.7813   -0.3966   -4.5064 C   0  0  0  0  0  0  0  0  0  0  0  0
    3.2254    0.9097   -5.0771 C   0  0  0  0  0  0  0  0  0  0  0  0
    5.0617   -0.1060   -3.7210 C   0  0  0  0  0  0  0  0  0  0  0  0
    2.4076   -0.1036   -2.5398 O   0  0  0  0  0  0  0  0  0  0  0  0
    2.4427   -0.4870   -0.9765 P   0  0  1  0  0  0  0  0  0  0  0  0
    1.5760   -1.6626   -0.7373 O   0  0  0  0  0  0  0  0  0  0  0  0
    4.1532   -0.8832   -0.4862 C   0  0  0  0  0  0  0  0  0  0  0  0
    4.6004   -2.1672   -1.1879 C   0  0  0  0  0  0  0  0  0  0  0  0
    5.9878   -2.5679   -0.6825 C   0  0  0  0  0  0  0  0  0  0  0  0
    6.4351   -3.8518   -1.3842 C   0  0  0  0  0  0  0  0  0  0  0  0
    7.8016   -4.2465   -0.8864 C   0  0  0  0  0  0  0  0  0  0  0  0
    8.9328   -3.7814   -1.5305 C   0  0  0  0  0  0  0  0  0  0  0  0
   10.1864   -4.1395   -1.0709 C   0  0  0  0  0  0  0  0  0  0  0  0
   10.3086   -4.9712    0.0264 C   0  0  0  0  0  0  0  0  0  0  0  0
    9.1774   -5.4405    0.6674 C   0  0  0  0  0  0  0  0  0  0  0  0
    7.9238   -5.0782    0.2110 C   0  0  0  0  0  0  0  0  0  0  0  0
    1.8394    0.9233    0.0087 C   0  0  0  0  0  0  0  0  0  0  0  0
    0.3873    1.1728   -0.3082 C   0  0  0  0  0  0  0  0  0  0  0  0
   -0.4717    0.4866    0.2039 O   0  0  0  0  0  0  0  0  0  0  0  0
    0.0433    2.1585   -1.1605 N   0  0  0  0  0  0  0  0  0  0  0  0
    0.9803    3.0633   -1.8509 C   0  0  0  0  0  0  0  0  0  0  0  0
    0.2149    3.5415   -3.1099 C   0  0  1  0  0  0  0  0  0  0  0  0
    0.2662    2.7971   -3.9046 H   0  0  0  0  0  0  0  0  0  0  0  0
   -1.2312    3.6742   -2.5636 C   0  0  0  0  0  0  0  0  0  0  0  0
   -1.3282    2.5053   -1.5608 C   0  0  1  0  0  0  0  0  0  0  0  0
   -1.9020    2.8153   -0.6874 H   0  0  0  0  0  0  0  0  0  0  0  0
   -1.9867    1.3183   -2.2153 C   0  0  0  0  0  0  0  0  0  0  0  0
   -1.3113    0.4124   -2.6429 O   0  0  0  0  0  0  0  0  0  0  0  0
    0.7446    4.8930   -3.5935 C   0  0  0  0  0  0  0  0  0  0  0  0
    0.6430    5.6293   -2.7963 H   0  0  0  0  0  0  0  0  0  0  0  0
   -0.0581    5.3483   -4.8138 C   0  0  0  0  0  0  0  0  0  0  0  0
    0.4716    6.6998   -5.2973 C   0  0  0  0  0  0  0  0  0  0  0  0
    1.9467    6.5623   -5.6795 C   0  0  0  0  0  0  0  0  0  0  0  0
    2.7494    6.1069   -4.4592 C   0  0  0  0  0  0  0  0  0  0  0  0
    2.2197    4.7554   -3.9757 C   0  0  0  0  0  0  0  0  0  0  0  0
   -2.3886   -3.6971   -4.0591 H   0  0  0  0  0  0  0  0  0  0  0  0
   -0.8681   -4.4156   -3.4760 H   0  0  0  0  0  0  0  0  0  0  0  0
   -1.6093   -3.0610   -2.5906 H   0  0  0  0  0  0  0  0  0  0  0  0
   -1.2032   -1.5708   -4.5304 H   0  0  0  0  0  0  0  0  0  0  0  0
   -0.4619   -2.9253   -5.4158 H   0  0  0  0  0  0  0  0  0  0  0  0
    4.0038   -1.0840   -5.3226 H   0  0  0  0  0  0  0  0  0  0  0  0
    3.0029    1.5971   -4.2610 H   0  0  0  0  0  0  0  0  0  0  0  0
    3.9642    1.3599   -5.7402 H   0  0  0  0  0  0  0  0  0  0  0  0
    2.3132    0.7026   -5.6367 H   0  0  0  0  0  0  0  0  0  0  0  0
    4.8210    0.4927   -2.8425 H   0  0  0  0  0  0  0  0  0  0  0  0
    5.5165   -1.0455   -3.4070 H   0  0  0  0  0  0  0  0  0  0  0  0
    5.7598    0.4419   -4.3539 H   0  0  0  0  0  0  0  0  0  0  0  0
    4.8124   -0.0639   -0.7730 H   0  0  0  0  0  0  0  0  0  0  0  0
    4.1981   -1.0248    0.5937 H   0  0  0  0  0  0  0  0  0  0  0  0
    3.8905   -2.9655   -0.9718 H   0  0  0  0  0  0  0  0  0  0  0  0
    4.6406   -1.9981   -2.2639 H   0  0  0  0  0  0  0  0  0  0  0  0
    6.6978   -1.7695   -0.8985 H   0  0  0  0  0  0  0  0  0  0  0  0
    5.9477   -2.7370    0.3936 H   0  0  0  0  0  0  0  0  0  0  0  0
    5.7251   -4.6502   -1.1681 H   0  0  0  0  0  0  0  0  0  0  0  0
    6.4752   -3.6827   -2.4602 H   0  0  0  0  0  0  0  0  0  0  0  0
    8.8372   -3.1352   -2.3906 H   0  0  0  0  0  0  0  0  0  0  0  0
   11.0702   -3.7731   -1.5719 H   0  0  0  0  0  0  0  0  0  0  0  0
   11.2880   -5.2546    0.3828 H   0  0  0  0  0  0  0  0  0  0  0  0
    9.2729   -6.0906    1.5245 H   0  0  0  0  0  0  0  0  0  0  0  0
    7.0400   -5.4452    0.7116 H   0  0  0  0  0  0  0  0  0  0  0  0
    2.4221    1.8118   -0.2341 H   0  0  0  0  0  0  0  0  0  0  0  0
    1.9461    0.6974    1.0697 H   0  0  0  0  0  0  0  0  0  0  0  0
    1.2283    3.9115   -1.2128 H   0  0  0  0  0  0  0  0  0  0  0  0
    1.8853    2.5267   -2.1361 H   0  0  0  0  0  0  0  0  0  0  0  0
   -1.3670    4.6313   -2.0601 H   0  0  0  0  0  0  0  0  0  0  0  0
   -1.9591    3.5556   -3.3662 H   0  0  0  0  0  0  0  0  0  0  0  0
    0.0435    4.6120   -5.6110 H   0  0  0  0  0  0  0  0  0  0  0  0
   -1.1090    5.4463   -4.5415 H   0  0  0  0  0  0  0  0  0  0  0  0
    0.3700    7.4362   -4.5001 H   0  0  0  0  0  0  0  0  0  0  0  0
   -0.1003    7.0243   -6.1667 H   0  0  0  0  0  0  0  0  0  0  0  0
    2.3241    7.5251   -6.0240 H   0  0  0  0  0  0  0  0  0  0  0  0
    2.0483    5.8259   -6.4767 H   0  0  0  0  0  0  0  0  0  0  0  0
    2.6478    6.8433   -3.6620 H   0  0  0  0  0  0  0  0  0  0  0  0
    3.8003    6.0089   -4.7315 H   0  0  0  0  0  0  0  0  0  0  0  0
    2.7916    4.4310   -3.1063 H   0  0  0  0  0  0  0  0  0  0  0  0
    2.3213    4.0190   -4.7729 H   0  0  0  0  0  0  0  0  0  0  0  0
   -3.3237    1.2675   -2.3234 O   0  0  0  0  0  1  0  0  0  0  0  0
  1  2  1  0  0  0  0
  1 43  1  0  0  0  0
  1 44  1  0  0  0  0
  1 45  1  0  0  0  0
  2  3  1  0  0  0  0
  2 46  1  0  0  0  0
  2 47  1  0  0  0  0
  3  4  2  0  0  0  0
  3  5  1  0  0  0  0
  5  6  1  0  0  0  0
  6  7  1  1  0  0  0
  6  8  1  0  0  0  0
  6 11  1  0  0  0  0
  8  9  1  0  0  0  0
  8 10  1  0  0  0  0
  8 48  1  0  0  0  0
  9 49  1  0  0  0  0
  9 50  1  0  0  0  0
  9 51  1  0  0  0  0
 10 52  1  0  0  0  0
 10 53  1  0  0  0  0
 10 54  1  0  0  0  0
 11 12  1  0  0  0  0
 12 13  2  1  0  0  0
 12 14  1  0  0  0  0
 12 24  1  0  0  0  0
 14 15  1  0  0  0  0
 14 55  1  0  0  0  0
 14 56  1  0  0  0  0
 15 16  1  0  0  0  0
 15 57  1  0  0  0  0
 15 58  1  0  0  0  0
 16 17  1  0  0  0  0
 16 59  1  0  0  0  0
 16 60  1  0  0  0  0
 17 18  1  0  0  0  0
 17 61  1  0  0  0  0
 17 62  1  0  0  0  0
 18 23  2  0  0  0  0
 18 19  1  0  0  0  0
 19 20  2  0  0  0  0
 19 63  1  0  0  0  0
 20 21  1  0  0  0  0
 20 64  1  0  0  0  0
 21 22  2  0  0  0  0
 21 65  1  0  0  0  0
 22 23  1  0  0  0  0
 22 66  1  0  0  0  0
 23 67  1  0  0  0  0
 24 25  1  0  0  0  0
 24 68  1  0  0  0  0
 24 69  1  0  0  0  0
 25 26  2  0  0  0  0
 25 27  1  0  0  0  0
 27 32  1  0  0  0  0
 27 28  1  0  0  0  0
 28 29  1  0  0  0  0
 28 70  1  0  0  0  0
 28 71  1  0  0  0  0
 29 30  1  6  0  0  0
 29 31  1  0  0  0  0
 29 36  1  0  0  0  0
 31 32  1  0  0  0  0
 31 72  1  0  0  0  0
 31 73  1  0  0  0  0
 32 33  1  1  0  0  0
 32 34  1  0  0  0  0
 34 35  2  0  0  0  0
 34 84  1  0  0  0  0
 36 37  1  0  0  0  0
 36 42  1  0  0  0  0
 36 38  1  0  0  0  0
 38 39  1  0  0  0  0
 38 74  1  0  0  0  0
 38 75  1  0  0  0  0
 39 40  1  0  0  0  0
 39 76  1  0  0  0  0
 39 77  1  0  0  0  0
 40 41  1  0  0  0  0
 40 78  1  0  0  0  0
 40 79  1  0  0  0  0
 41 42  1  0  0  0  0
 41 80  1  0  0  0  0
 41 81  1  0  0  0  0
 42 82  1  0  0  0  0
 42 83  1  0  0  0  0
M  END
$$$$
