ZINC01846088
 OpenBabel08292219463D

 53 54  0  0  1  0  0  0  0  0999 V2000
   -0.0187    1.5258    0.0104 C   0  0  0  0  0  0  0  0  0  0  0  0
    0.0021   -0.0041    0.0020 C   0  0  0  0  0  0  0  0  0  0  0  0
   -1.3761   -0.5125    0.0124 N   0  3  2  0  0  0  0  0  0  0  0  0
   -2.0277   -0.1576    1.2912 C   0  0  0  0  0  0  0  0  0  0  0  0
   -2.9349   -1.3687    1.6225 C   0  0  0  0  0  0  0  0  0  0  0  0
   -2.0641   -2.5557    1.1330 C   0  0  0  0  0  0  0  0  0  0  0  0
   -1.3641   -1.9813   -0.1166 C   0  0  1  0  0  0  0  0  0  0  0  0
   -0.3362   -2.3409   -0.1641 H   0  0  0  0  0  0  0  0  0  0  0  0
   -2.1238   -2.3993   -1.3771 C   0  0  0  0  0  0  0  0  0  0  0  0
   -1.5568   -1.7114   -2.5397 N   0  0  0  0  0  0  0  0  0  0  0  0
   -2.0704   -1.9270   -3.7669 C   0  0  0  0  0  0  0  0  0  0  0  0
   -3.0047   -2.6926   -3.9093 O   0  0  0  0  0  0  0  0  0  0  0  0
   -1.5006   -1.2357   -4.9353 C   0  0  0  0  0  0  0  0  0  0  0  0
   -0.4223   -0.3590   -4.7751 C   0  0  0  0  0  0  0  0  0  0  0  0
    0.1055    0.2821   -5.8582 C   0  0  0  0  0  0  0  0  0  0  0  0
   -0.4242    0.0692   -7.1298 C   0  0  0  0  0  0  0  0  0  0  0  0
   -1.4949   -0.7984   -7.3052 C   0  0  0  0  0  0  0  0  0  0  0  0
   -2.0336   -1.4584   -6.2146 C   0  0  0  0  0  0  0  0  0  0  0  0
   -3.0756   -2.3112   -6.3801 O   0  0  0  0  0  0  0  0  0  0  0  0
   -3.5646   -2.4873   -7.7112 C   0  0  0  0  0  0  0  0  0  0  0  0
    0.1209    0.7278   -8.2266 N   0  0  0  0  0  0  0  0  0  0  0  0
    1.4633    1.3852   -5.6479 S   0  0  0  0  0  0  0  0  0  0  0  0
    1.0653    2.5798   -6.3067 O   0  0  0  0  0  0  0  0  0  0  0  0
    1.7215    1.3802   -4.2505 O   0  0  0  0  0  0  0  0  0  0  0  0
    2.8381    0.6079   -6.5402 C   0  0  0  0  0  0  0  0  0  0  0  0
    4.0840    1.4882   -6.4242 C   0  0  0  0  0  0  0  0  0  0  0  0
    1.0039    1.9031    0.0027 H   0  0  0  0  0  0  0  0  0  0  0  0
   -0.5459    1.8868   -0.8726 H   0  0  0  0  0  0  0  0  0  0  0  0
   -0.5289    1.8773    0.9072 H   0  0  0  0  0  0  0  0  0  0  0  0
    0.5123   -0.3556   -0.8948 H   0  0  0  0  0  0  0  0  0  0  0  0
    0.5293   -0.3651    0.8851 H   0  0  0  0  0  0  0  0  0  0  0  0
   -1.2802   -0.0186    2.0722 H   0  0  0  0  0  0  0  0  0  0  0  0
   -2.6275    0.7449    1.1738 H   0  0  0  0  0  0  0  0  0  0  0  0
   -3.1200   -1.4363    2.6945 H   0  0  0  0  0  0  0  0  0  0  0  0
   -3.8722   -1.3176    1.0684 H   0  0  0  0  0  0  0  0  0  0  0  0
   -1.3319   -2.8348    1.8908 H   0  0  0  0  0  0  0  0  0  0  0  0
   -2.6890   -3.4082    0.8669 H   0  0  0  0  0  0  0  0  0  0  0  0
   -2.0355   -3.4770   -1.5139 H   0  0  0  0  0  0  0  0  0  0  0  0
   -3.1752   -2.1311   -1.2734 H   0  0  0  0  0  0  0  0  0  0  0  0
   -0.8117   -1.1008   -2.4262 H   0  0  0  0  0  0  0  0  0  0  0  0
   -0.0070   -0.1889   -3.7928 H   0  0  0  0  0  0  0  0  0  0  0  0
   -1.9033   -0.9611   -8.2917 H   0  0  0  0  0  0  0  0  0  0  0  0
   -2.7658   -2.8749   -8.3435 H   0  0  0  0  0  0  0  0  0  0  0  0
   -4.3957   -3.1926   -7.7026 H   0  0  0  0  0  0  0  0  0  0  0  0
   -3.9055   -1.5289   -8.1029 H   0  0  0  0  0  0  0  0  0  0  0  0
    0.8683    1.3342   -8.1059 H   0  0  0  0  0  0  0  0  0  0  0  0
   -0.2464    0.5809   -9.1122 H   0  0  0  0  0  0  0  0  0  0  0  0
    3.0438   -0.3717   -6.1085 H   0  0  0  0  0  0  0  0  0  0  0  0
    2.5708    0.4931   -7.5906 H   0  0  0  0  0  0  0  0  0  0  0  0
    4.9101    1.0211   -6.9603 H   0  0  0  0  0  0  0  0  0  0  0  0
    3.8783    2.4677   -6.8559 H   0  0  0  0  0  0  0  0  0  0  0  0
    4.3513    1.6029   -5.3737 H   0  0  0  0  0  0  0  0  0  0  0  0
   -1.8936   -0.1086   -0.7537 H   0  0  0  0  0  0  0  0  0  0  0  0
  1  2  1  0  0  0  0
  1 27  1  0  0  0  0
  1 28  1  0  0  0  0
  1 29  1  0  0  0  0
  2  3  1  0  0  0  0
  2 30  1  0  0  0  0
  2 31  1  0  0  0  0
  3  7  1  0  0  0  0
  3  4  1  0  0  0  0
  3 53  1  6  0  0  0
  4  5  1  0  0  0  0
  4 32  1  0  0  0  0
  4 33  1  0  0  0  0
  5  6  1  0  0  0  0
  5 34  1  0  0  0  0
  5 35  1  0  0  0  0
  6  7  1  0  0  0  0
  6 36  1  0  0  0  0
  6 37  1  0  0  0  0
  7  8  1  6  0  0  0
  7  9  1  0  0  0  0
  9 10  1  0  0  0  0
  9 38  1  0  0  0  0
  9 39  1  0  0  0  0
 10 11  1  0  0  0  0
 10 40  1  0  0  0  0
 11 12  2  0  0  0  0
 11 13  1  0  0  0  0
 13 18  2  0  0  0  0
 13 14  1  0  0  0  0
 14 15  2  0  0  0  0
 14 41  1  0  0  0  0
 15 16  1  0  0  0  0
 15 22  1  0  0  0  0
 16 17  2  0  0  0  0
 16 21  1  0  0  0  0
 17 18  1  0  0  0  0
 17 42  1  0  0  0  0
 18 19  1  0  0  0  0
 19 20  1  0  0  0  0
 20 43  1  0  0  0  0
 20 44  1  0  0  0  0
 20 45  1  0  0  0  0
 21 46  1  0  0  0  0
 21 47  1  0  0  0  0
 22 23  2  0  0  0  0
 22 24  2  0  0  0  0
 22 25  1  0  0  0  0
 25 26  1  0  0  0  0
 25 48  1  0  0  0  0
 25 49  1  0  0  0  0
 26 50  1  0  0  0  0
 26 51  1  0  0  0  0
 26 52  1  0  0  0  0
M  CHG  1   3   1
M  END
$$$$
