ZINC03831138
 OpenBabel08292219463D

 65 65  0  0  1  0  0  0  0  0999 V2000
   -0.0187    1.5258    0.0104 C   0  0  0  0  0  0  0  0  0  0  0  0
    0.0021   -0.0041    0.0020 C   0  0  0  0  0  0  0  0  0  0  0  0
    0.7182   -0.4975   -1.2568 C   0  0  0  0  0  0  0  0  0  0  0  0
    0.7390   -2.0273   -1.2652 C   0  0  0  0  0  0  0  0  0  0  0  0
    1.4551   -2.5207   -2.5240 C   0  0  2  0  0  0  0  0  0  0  0  0
    0.7900   -1.9128   -3.7605 C   0  0  0  0  0  0  0  0  0  0  0  0
    1.3672   -4.0465   -2.5958 C   0  0  0  0  0  0  0  0  0  0  0  0
    2.0726   -4.5325   -3.8357 C   0  0  0  0  0  0  0  0  0  0  0  0
    3.0257   -5.4261   -3.7393 C   0  0  0  0  0  0  0  0  0  0  0  0
    3.7310   -5.9121   -4.9792 C   0  0  1  0  0  0  0  0  0  0  0  0
    3.3365   -5.4121   -5.8638 H   0  0  0  0  0  0  0  0  0  0  0  0
    5.2594   -5.6839   -4.8610 C   0  0  1  0  0  0  0  0  0  0  0  0
    5.6005   -5.8639   -3.8415 H   0  0  0  0  0  0  0  0  0  0  0  0
    5.8290   -6.7507   -5.8288 C   0  0  0  0  0  0  0  0  0  0  0  0
    4.9224   -7.9543   -5.6415 C   0  0  0  0  0  0  0  0  0  0  0  0
    5.2051   -9.1057   -5.8707 O   0  0  0  0  0  0  0  0  0  0  0  0
    3.5947   -7.4428   -5.1156 C   0  0  2  0  0  0  0  0  0  0  0  0
    3.3844   -7.8862   -4.1424 H   0  0  0  0  0  0  0  0  0  0  0  0
    2.4728   -7.7823   -6.0990 C   0  0  0  0  0  0  0  0  0  0  0  0
    2.2643   -9.2977   -6.1313 C   0  0  0  0  0  0  0  0  0  0  0  0
    1.1424   -9.6372   -7.1147 C   0  0  0  0  0  0  0  0  0  0  0  0
    0.9338  -11.1526   -7.1471 C   0  0  0  0  0  0  0  0  0  0  0  0
   -0.1881  -11.4921   -8.1304 C   0  0  0  0  0  0  0  0  0  0  0  0
   -0.3966  -13.0074   -8.1628 C   0  0  0  0  0  0  0  0  0  0  0  0
   -1.5016  -13.3418   -9.1314 C   0  0  0  0  0  0  0  0  0  0  0  0
   -2.0646  -12.4587   -9.7340 O   0  0  0  0  0  0  0  0  0  0  0  0
   -1.8605  -14.6207   -9.3247 O   0  0  0  0  0  0  0  0  0  0  0  0
   -2.9154  -14.8647  -10.2572 C   0  0  0  0  0  0  0  0  0  0  0  0
    5.6110   -4.3660   -5.2870 O   0  0  0  0  0  0  0  0  0  0  0  0
    2.8272   -2.1243   -2.4777 O   0  0  0  0  0  0  0  0  0  0  0  0
    1.0039    1.9031    0.0027 H   0  0  0  0  0  0  0  0  0  0  0  0
   -0.5459    1.8868   -0.8726 H   0  0  0  0  0  0  0  0  0  0  0  0
   -0.5289    1.8773    0.9072 H   0  0  0  0  0  0  0  0  0  0  0  0
    0.5293   -0.3651    0.8851 H   0  0  0  0  0  0  0  0  0  0  0  0
   -1.0205   -0.3814    0.0098 H   0  0  0  0  0  0  0  0  0  0  0  0
    0.1910   -0.1364   -2.1398 H   0  0  0  0  0  0  0  0  0  0  0  0
    1.7408   -0.1202   -1.2645 H   0  0  0  0  0  0  0  0  0  0  0  0
    1.2661   -2.3884   -0.3821 H   0  0  0  0  0  0  0  0  0  0  0  0
   -0.2836   -2.4046   -1.2575 H   0  0  0  0  0  0  0  0  0  0  0  0
    0.8526   -0.8258   -3.7094 H   0  0  0  0  0  0  0  0  0  0  0  0
    1.3002   -2.2644   -4.6573 H   0  0  0  0  0  0  0  0  0  0  0  0
   -0.2566   -2.2152   -3.7958 H   0  0  0  0  0  0  0  0  0  0  0  0
    1.8410   -4.4796   -1.7149 H   0  0  0  0  0  0  0  0  0  0  0  0
    0.3206   -4.3489   -2.6311 H   0  0  0  0  0  0  0  0  0  0  0  0
    1.7924   -4.1441   -4.8037 H   0  0  0  0  0  0  0  0  0  0  0  0
    3.3059   -5.8145   -2.7713 H   0  0  0  0  0  0  0  0  0  0  0  0
    5.7817   -6.3949   -6.8580 H   0  0  0  0  0  0  0  0  0  0  0  0
    6.8548   -7.0010   -5.5584 H   0  0  0  0  0  0  0  0  0  0  0  0
    1.5510   -7.2954   -5.7807 H   0  0  0  0  0  0  0  0  0  0  0  0
    2.7440   -7.4315   -7.0947 H   0  0  0  0  0  0  0  0  0  0  0  0
    3.1861   -9.7846   -6.4496 H   0  0  0  0  0  0  0  0  0  0  0  0
    1.9931   -9.6485   -5.1356 H   0  0  0  0  0  0  0  0  0  0  0  0
    0.2206   -9.1503   -6.7964 H   0  0  0  0  0  0  0  0  0  0  0  0
    1.4135   -9.2864   -8.1105 H   0  0  0  0  0  0  0  0  0  0  0  0
    1.8556  -11.6395   -7.4654 H   0  0  0  0  0  0  0  0  0  0  0  0
    0.6627  -11.5034   -6.1513 H   0  0  0  0  0  0  0  0  0  0  0  0
   -1.1099  -11.0052   -7.8122 H   0  0  0  0  0  0  0  0  0  0  0  0
    0.0831  -11.1413   -9.1262 H   0  0  0  0  0  0  0  0  0  0  0  0
    0.5252  -13.4943   -8.4811 H   0  0  0  0  0  0  0  0  0  0  0  0
   -0.6677  -13.3582   -7.1671 H   0  0  0  0  0  0  0  0  0  0  0  0
   -3.8193  -14.3539   -9.9251 H   0  0  0  0  0  0  0  0  0  0  0  0
   -2.6263  -14.4900  -11.2391 H   0  0  0  0  0  0  0  0  0  0  0  0
   -3.1054  -15.9363  -10.3187 H   0  0  0  0  0  0  0  0  0  0  0  0
    6.5572   -4.1741   -5.2319 H   0  0  0  0  0  0  0  0  0  0  0  0
    3.3123   -2.4741   -1.7179 H   0  0  0  0  0  0  0  0  0  0  0  0
  1  2  1  0  0  0  0
  1 31  1  0  0  0  0
  1 32  1  0  0  0  0
  1 33  1  0  0  0  0
  2  3  1  0  0  0  0
  2 34  1  0  0  0  0
  2 35  1  0  0  0  0
  3  4  1  0  0  0  0
  3 36  1  0  0  0  0
  3 37  1  0  0  0  0
  4  5  1  0  0  0  0
  4 38  1  0  0  0  0
  4 39  1  0  0  0  0
  5  6  1  0  0  0  0
  5  7  1  0  0  0  0
  5 30  1  1  0  0  0
  6 40  1  0  0  0  0
  6 41  1  0  0  0  0
  6 42  1  0  0  0  0
  7  8  1  0  0  0  0
  7 43  1  0  0  0  0
  7 44  1  0  0  0  0
  8  9  2  0  0  0  0
  8 45  1  0  0  0  0
  9 10  1  0  0  0  0
  9 46  1  0  0  0  0
 10 11  1  6  0  0  0
 10 17  1  0  0  0  0
 10 12  1  0  0  0  0
 12 13  1  1  0  0  0
 12 14  1  0  0  0  0
 12 29  1  0  0  0  0
 14 15  1  0  0  0  0
 14 47  1  0  0  0  0
 14 48  1  0  0  0  0
 15 16  2  0  0  0  0
 15 17  1  0  0  0  0
 17 18  1  1  0  0  0
 17 19  1  0  0  0  0
 19 20  1  0  0  0  0
 19 49  1  0  0  0  0
 19 50  1  0  0  0  0
 20 21  1  0  0  0  0
 20 51  1  0  0  0  0
 20 52  1  0  0  0  0
 21 22  1  0  0  0  0
 21 53  1  0  0  0  0
 21 54  1  0  0  0  0
 22 23  1  0  0  0  0
 22 55  1  0  0  0  0
 22 56  1  0  0  0  0
 23 24  1  0  0  0  0
 23 57  1  0  0  0  0
 23 58  1  0  0  0  0
 24 25  1  0  0  0  0
 24 59  1  0  0  0  0
 24 60  1  0  0  0  0
 25 26  2  0  0  0  0
 25 27  1  0  0  0  0
 27 28  1  0  0  0  0
 28 61  1  0  0  0  0
 28 62  1  0  0  0  0
 28 63  1  0  0  0  0
 29 64  1  0  0  0  0
 30 65  1  0  0  0  0
M  END
$$$$
