ZINC28240499
 OpenBabel08292219463D

 62 65  0  0  1  0  0  0  0  0999 V2000
    1.6276    0.2173   -4.2187 C   0  0  0  0  0  0  0  0  0  0  0  0
    0.5313   -0.6676   -3.6222 C   0  0  2  0  0  0  0  0  0  0  0  0
    0.9156   -1.6606   -3.3461 H   0  0  0  0  0  0  0  0  0  0  0  0
   -0.6014   -0.7971   -4.6077 C   0  0  0  0  0  0  0  0  0  0  0  0
   -1.5363    0.2146   -4.7230 C   0  0  0  0  0  0  0  0  0  0  0  0
   -2.5728    0.0977   -5.6301 C   0  0  0  0  0  0  0  0  0  0  0  0
   -2.6797   -1.0349   -6.4154 C   0  0  0  0  0  0  0  0  0  0  0  0
   -1.7478   -2.0490   -6.2963 C   0  0  0  0  0  0  0  0  0  0  0  0
   -0.7088   -1.9302   -5.3923 C   0  0  0  0  0  0  0  0  0  0  0  0
   -1.8643   -3.2837   -7.1523 C   0  0  0  0  0  0  0  0  0  0  0  0
   -2.6421   -4.2391   -6.4894 F   0  0  0  0  0  0  0  0  0  0  0  0
   -2.4699   -2.9522   -8.3691 F   0  0  0  0  0  0  0  0  0  0  0  0
   -0.5891   -3.8062   -7.3932 F   0  0  0  0  0  0  0  0  0  0  0  0
   -3.5885    1.2034   -5.7603 C   0  0  0  0  0  0  0  0  0  0  0  0
   -4.5337    0.8564   -6.7315 F   0  0  0  0  0  0  0  0  0  0  0  0
   -4.2304    1.3940   -4.5320 F   0  0  0  0  0  0  0  0  0  0  0  0
   -2.9442    2.3863   -6.1383 F   0  0  0  0  0  0  0  0  0  0  0  0
    0.0468   -0.0769   -2.4145 O   0  0  0  0  0  0  0  0  0  0  0  0
    0.7497   -0.4921   -1.2417 C   0  0  2  0  0  0  0  0  0  0  0  0
    0.8502   -1.5865   -1.2881 H   0  0  0  0  0  0  0  0  0  0  0  0
    0.0021   -0.0041    0.0020 C   0  0  1  0  0  0  0  0  0  0  0  0
    0.5030   -0.3398    0.9220 H   0  0  0  0  0  0  0  0  0  0  0  0
   -0.0179    1.4659    0.0101 N   0  0  0  0  0  0  0  0  0  0  0  0
    1.3496    2.0055   -0.0001 C   0  0  0  0  0  0  0  0  0  0  0  0
    2.0838    1.4973   -1.2437 C   0  0  0  0  0  0  0  0  0  0  0  0
    2.0659    0.0673   -1.2506 O   0  0  0  0  0  0  0  0  0  0  0  0
   -0.7765    1.9758    1.1601 C   0  0  0  0  0  0  0  0  0  0  0  0
   -0.5725    3.4644    1.2763 C   0  0  0  0  0  0  0  0  0  0  0  0
   -1.3280    4.3968    0.6946 N   0  0  0  0  0  0  0  0  0  0  0  0
   -0.8747    5.5908    1.0031 C   0  0  0  0  0  0  0  0  0  0  0  0
    0.1991    5.4328    1.8028 N   0  0  0  0  0  0  0  0  0  0  0  0
    0.3692    4.0486    1.9675 N   0  0  0  0  0  0  0  0  0  0  0  0
    1.1195    6.6211    2.4588 P   0  0  1  0  0  0  0  0  0  0  0  0
    1.1173    7.7986    1.5621 O   0  0  0  0  0  0  0  0  0  0  0  0
    0.5167    7.0372    3.8925 O   0  0  0  0  0  1  0  0  0  0  0  0
    2.6283    6.0907    2.6444 O   0  0  0  0  0  0  0  0  0  0  0  0
   -1.3945    6.7716    0.5909 O   0  0  0  0  0  0  0  0  0  0  0  0
   -1.4113   -0.5264   -0.0221 C   0  0  0  0  0  0  0  0  0  0  0  0
   -2.3669    0.1026   -0.7983 C   0  0  0  0  0  0  0  0  0  0  0  0
   -3.6622   -0.3784   -0.8250 C   0  0  0  0  0  0  0  0  0  0  0  0
   -4.0052   -1.4843   -0.0658 C   0  0  0  0  0  0  0  0  0  0  0  0
   -3.0486   -2.1102    0.7153 C   0  0  0  0  0  0  0  0  0  0  0  0
   -1.7526   -1.6306    0.7363 C   0  0  0  0  0  0  0  0  0  0  0  0
   -5.2723   -1.9525   -0.0874 F   0  0  0  0  0  0  0  0  0  0  0  0
    2.4544    0.3118   -3.4993 H   0  0  0  0  0  0  0  0  0  0  0  0
    1.2160    1.2137   -4.4373 H   0  0  0  0  0  0  0  0  0  0  0  0
    2.0005   -0.2374   -5.1483 H   0  0  0  0  0  0  0  0  0  0  0  0
   -1.4549    1.0979   -4.1069 H   0  0  0  0  0  0  0  0  0  0  0  0
   -3.4910   -1.1274   -7.1222 H   0  0  0  0  0  0  0  0  0  0  0  0
    0.0193   -2.7224   -5.2992 H   0  0  0  0  0  0  0  0  0  0  0  0
    1.3099    3.1046   -0.0189 H   0  0  0  0  0  0  0  0  0  0  0  0
    1.8817    1.6733    0.9035 H   0  0  0  0  0  0  0  0  0  0  0  0
    1.5822    1.8766   -2.1462 H   0  0  0  0  0  0  0  0  0  0  0  0
    3.1246    1.8528   -1.2259 H   0  0  0  0  0  0  0  0  0  0  0  0
   -1.8461    1.7623    1.0175 H   0  0  0  0  0  0  0  0  0  0  0  0
   -0.4239    1.4845    2.0790 H   0  0  0  0  0  0  0  0  0  0  0  0
    3.3952    6.7526    3.0731 H   0  0  0  0  0  0  0  0  0  0  0  0
   -2.1001    0.9677   -1.3872 H   0  0  0  0  0  0  0  0  0  0  0  0
   -4.4076    0.1106   -1.4346 H   0  0  0  0  0  0  0  0  0  0  0  0
   -3.3151   -2.9727    1.3082 H   0  0  0  0  0  0  0  0  0  0  0  0
   -1.0062   -2.1189    1.3452 H   0  0  0  0  0  0  0  0  0  0  0  0
   -2.1822    4.1005    0.0681 H   0  0  0  0  0  0  0  0  0  0  0  0
  1  2  1  0  0  0  0
  1 45  1  0  0  0  0
  1 46  1  0  0  0  0
  1 47  1  0  0  0  0
  2  3  1  1  0  0  0
  2  4  1  0  0  0  0
  2 18  1  0  0  0  0
  4  9  2  0  0  0  0
  4  5  1  0  0  0  0
  5  6  2  0  0  0  0
  5 48  1  0  0  0  0
  6  7  1  0  0  0  0
  6 14  1  0  0  0  0
  7  8  2  0  0  0  0
  7 49  1  0  0  0  0
  8  9  1  0  0  0  0
  8 10  1  0  0  0  0
  9 50  1  0  0  0  0
 10 11  1  0  0  0  0
 10 12  1  0  0  0  0
 10 13  1  0  0  0  0
 14 15  1  0  0  0  0
 14 16  1  0  0  0  0
 14 17  1  0  0  0  0
 18 19  1  0  0  0  0
 19 20  1  1  0  0  0
 19 26  1  0  0  0  0
 19 21  1  0  0  0  0
 21 22  1  1  0  0  0
 21 23  1  0  0  0  0
 21 38  1  0  0  0  0
 23 24  1  0  0  0  0
 23 27  1  0  0  0  0
 24 25  1  0  0  0  0
 24 51  1  0  0  0  0
 24 52  1  0  0  0  0
 25 26  1  0  0  0  0
 25 53  1  0  0  0  0
 25 54  1  0  0  0  0
 27 28  1  0  0  0  0
 27 55  1  0  0  0  0
 27 56  1  0  0  0  0
 28 32  2  0  0  0  0
 28 29  1  0  0  0  0
 29 30  1  0  0  0  0
 29 62  1  0  0  0  0
 30 31  1  0  0  0  0
 30 37  2  0  0  0  0
 31 32  1  0  0  0  0
 31 33  1  0  0  0  0
 33 34  2  6  0  0  0
 33 35  1  0  0  0  0
 33 36  1  0  0  0  0
 36 57  1  0  0  0  0
 38 43  2  0  0  0  0
 38 39  1  0  0  0  0
 39 40  2  0  0  0  0
 39 58  1  0  0  0  0
 40 41  1  0  0  0  0
 40 59  1  0  0  0  0
 41 42  2  0  0  0  0
 41 44  1  0  0  0  0
 42 43  1  0  0  0  0
 42 60  1  0  0  0  0
 43 61  1  0  0  0  0
M  END
$$$$
