ZINC00000431
 OpenBabel08292219463D

 31 33  0  0  1  0  0  0  0  0999 V2000
    1.7779    1.4018    1.0412 C   0  0  0  0  0  0  0  0  0  0  0  0
    1.1699    2.0868    0.0037 C   0  0  0  0  0  0  0  0  0  0  0  0
    0.5873    1.3949   -1.0421 C   0  0  0  0  0  0  0  0  0  0  0  0
    0.6091    0.0136   -1.0570 C   0  0  0  0  0  0  0  0  0  0  0  0
    1.2210   -0.6824   -0.0132 C   0  0  0  0  0  0  0  0  0  0  0  0
    1.8065    0.0227    1.0385 C   0  0  0  0  0  0  0  0  0  0  0  0
    1.2479   -2.1632   -0.0218 C   0  0  0  0  0  0  0  0  0  0  0  0
    2.3939   -2.7367   -0.1304 N   0  0  0  0  0  0  0  0  0  0  0  0
    2.5294   -4.1926   -0.1558 C   0  0  2  0  0  0  0  0  0  0  0  0
    3.5855   -4.4603   -0.1905 H   0  0  0  0  0  0  0  0  0  0  0  0
    1.8342   -4.7253   -1.3789 C   0  0  0  0  0  0  0  0  0  0  0  0
    2.4864   -5.2947   -2.2283 O   0  0  0  0  0  0  0  0  0  0  0  0
    0.5216   -4.5883   -1.5529 N   0  0  0  0  0  0  0  0  0  0  0  0
   -0.3484   -4.0112   -0.6402 C   0  0  0  0  0  0  0  0  0  0  0  0
   -0.0378   -2.8680    0.1004 C   0  0  0  0  0  0  0  0  0  0  0  0
   -0.9798   -2.3510    1.0025 C   0  0  0  0  0  0  0  0  0  0  0  0
   -2.2011   -2.9651    1.1668 C   0  0  0  0  0  0  0  0  0  0  0  0
   -2.5081   -4.1034    0.4385 C   0  0  0  0  0  0  0  0  0  0  0  0
   -1.5917   -4.6216   -0.4654 C   0  0  0  0  0  0  0  0  0  0  0  0
   -3.3564   -2.3137    2.2870 Cl  0  0  0  0  0  0  0  0  0  0  0  0
    1.9328   -4.7493    1.0172 O   0  0  0  0  0  0  0  0  0  0  0  0
   -0.1231   -0.8543   -2.3701 Cl  0  0  0  0  0  0  0  0  0  0  0  0
    2.2350    1.9484    1.8527 H   0  0  0  0  0  0  0  0  0  0  0  0
    1.1501    3.1666    0.0111 H   0  0  0  0  0  0  0  0  0  0  0  0
    0.1141    1.9352   -1.8487 H   0  0  0  0  0  0  0  0  0  0  0  0
    2.2814   -0.5101    1.8490 H   0  0  0  0  0  0  0  0  0  0  0  0
    0.1439   -4.9184   -2.3832 H   0  0  0  0  0  0  0  0  0  0  0  0
   -0.7449   -1.4644    1.5728 H   0  0  0  0  0  0  0  0  0  0  0  0
   -3.4657   -4.5852    0.5694 H   0  0  0  0  0  0  0  0  0  0  0  0
   -1.8359   -5.5085   -1.0313 H   0  0  0  0  0  0  0  0  0  0  0  0
    2.3287   -4.4411    1.8439 H   0  0  0  0  0  0  0  0  0  0  0  0
  1  6  2  0  0  0  0
  1  2  1  0  0  0  0
  1 23  1  0  0  0  0
  2  3  2  0  0  0  0
  2 24  1  0  0  0  0
  3  4  1  0  0  0  0
  3 25  1  0  0  0  0
  4  5  2  0  0  0  0
  4 22  1  0  0  0  0
  5  6  1  0  0  0  0
  5  7  1  0  0  0  0
  6 26  1  0  0  0  0
  7 15  1  0  0  0  0
  7  8  2  0  0  0  0
  8  9  1  0  0  0  0
  9 10  1  6  0  0  0
  9 11  1  0  0  0  0
  9 21  1  0  0  0  0
 11 12  2  0  0  0  0
 11 13  1  0  0  0  0
 13 14  1  0  0  0  0
 13 27  1  0  0  0  0
 14 19  2  0  0  0  0
 14 15  1  0  0  0  0
 15 16  2  0  0  0  0
 16 17  1  0  0  0  0
 16 28  1  0  0  0  0
 17 18  2  0  0  0  0
 17 20  1  0  0  0  0
 18 19  1  0  0  0  0
 18 29  1  0  0  0  0
 19 30  1  0  0  0  0
 21 31  1  0  0  0  0
M  END
$$$$
