ZINC00643046
 OpenBabel08292219463D

 76 79  0  0  0  0  0  0  0  0999 V2000
    0.4883    2.4897    1.2990 C   0  0  0  0  0  0  0  0  0  0  0  0
    1.1580    2.1388    2.6297 C   0  0  0  0  0  0  0  0  0  0  0  0
    1.3103    0.6181    2.7347 C   0  0  0  0  0  0  0  0  0  0  0  0
    2.0305    0.1319    1.5500 N   0  0  0  0  0  0  0  0  0  0  0  0
    1.5224    0.4890    0.2185 C   0  0  0  0  0  0  0  0  0  0  0  0
    1.3678    2.0112    0.1416 C   0  0  0  0  0  0  0  0  0  0  0  0
    3.1637   -0.6453    1.6854 C   0  0  0  0  0  0  0  0  0  0  0  0
    3.0733   -2.0580    1.7467 C   0  0  0  0  0  0  0  0  0  0  0  0
    4.2673   -2.7976    1.8855 C   0  0  0  0  0  0  0  0  0  0  0  0
    4.1770   -4.2103    1.9469 C   0  0  0  0  0  0  0  0  0  0  0  0
    2.9771   -4.7656    1.8709 N   0  0  0  0  0  0  0  0  0  0  0  0
    1.8782   -4.0279    1.7403 C   0  0  0  0  0  0  0  0  0  0  0  0
    1.9084   -2.7098    1.6788 N   0  0  0  0  0  0  0  0  0  0  0  0
    0.6525   -4.6689    1.6658 N   0  0  0  0  0  0  0  0  0  0  0  0
   -0.5766   -3.8848    1.5217 C   0  0  0  0  0  0  0  0  0  0  0  0
   -0.8807   -3.6815    0.0361 C   0  0  0  0  0  0  0  0  0  0  0  0
   -1.1650   -4.9445   -0.5691 O   0  0  0  0  0  0  0  0  0  0  0  0
    0.5852   -6.1309    1.7310 C   0  0  0  0  0  0  0  0  0  0  0  0
    0.4380   -6.5701    3.1892 C   0  0  0  0  0  0  0  0  0  0  0  0
   -0.8147   -6.1108    3.7009 O   0  0  0  0  0  0  0  0  0  0  0  0
    5.3102   -4.9876    2.0819 N   0  0  0  0  0  0  0  0  0  0  0  0
    5.8166   -5.3477    3.4132 C   0  0  0  0  0  0  0  0  0  0  0  0
    5.9722   -6.8700    3.4864 C   0  0  0  0  0  0  0  0  0  0  0  0
    6.8536   -7.3449    2.3290 C   0  0  0  0  0  0  0  0  0  0  0  0
    6.1855   -6.9910    0.9983 C   0  0  0  0  0  0  0  0  0  0  0  0
    6.0290   -5.4752    0.8969 C   0  0  0  0  0  0  0  0  0  0  0  0
    5.4322   -2.1458    1.9543 N   0  0  0  0  0  0  0  0  0  0  0  0
    5.4623   -0.8277    1.8928 C   0  0  0  0  0  0  0  0  0  0  0  0
    4.3640   -0.0904    1.7559 N   0  0  0  0  0  0  0  0  0  0  0  0
    6.6881   -0.1867    1.9678 N   0  0  0  0  0  0  0  0  0  0  0  0
    7.9171   -0.9709    2.1123 C   0  0  0  0  0  0  0  0  0  0  0  0
    8.4692   -1.3136    0.7271 C   0  0  0  0  0  0  0  0  0  0  0  0
    8.8633   -0.1124    0.0609 O   0  0  0  0  0  0  0  0  0  0  0  0
    6.7554    1.2753    1.9026 C   0  0  0  0  0  0  0  0  0  0  0  0
    6.6545    1.8540    3.3153 C   0  0  0  0  0  0  0  0  0  0  0  0
    7.7974    1.4565    4.0756 O   0  0  0  0  0  0  0  0  0  0  0  0
   -0.4844    2.0011    1.2421 H   0  0  0  0  0  0  0  0  0  0  0  0
    0.3565    3.5696    1.2325 H   0  0  0  0  0  0  0  0  0  0  0  0
    2.1412    2.6070    2.6767 H   0  0  0  0  0  0  0  0  0  0  0  0
    0.5425    2.5006    3.4533 H   0  0  0  0  0  0  0  0  0  0  0  0
    1.8745    0.3686    3.6333 H   0  0  0  0  0  0  0  0  0  0  0  0
    0.3248    0.1544    2.7790 H   0  0  0  0  0  0  0  0  0  0  0  0
    2.2266    0.1543   -0.5432 H   0  0  0  0  0  0  0  0  0  0  0  0
    0.5542    0.0148    0.0576 H   0  0  0  0  0  0  0  0  0  0  0  0
    0.9016    2.2821   -0.8057 H   0  0  0  0  0  0  0  0  0  0  0  0
    2.3490    2.4805    0.2121 H   0  0  0  0  0  0  0  0  0  0  0  0
   -1.4038   -4.4160    1.9926 H   0  0  0  0  0  0  0  0  0  0  0  0
   -0.4472   -2.9149    2.0021 H   0  0  0  0  0  0  0  0  0  0  0  0
   -1.7438   -3.0246   -0.0716 H   0  0  0  0  0  0  0  0  0  0  0  0
   -0.0175   -3.2303   -0.4531 H   0  0  0  0  0  0  0  0  0  0  0  0
   -1.3673   -4.8916   -1.5132 H   0  0  0  0  0  0  0  0  0  0  0  0
   -0.2732   -6.4810    1.1577 H   0  0  0  0  0  0  0  0  0  0  0  0
    1.4983   -6.5556    1.3140 H   0  0  0  0  0  0  0  0  0  0  0  0
    0.4771   -7.6579    3.2467 H   0  0  0  0  0  0  0  0  0  0  0  0
    1.2495   -6.1456    3.7802 H   0  0  0  0  0  0  0  0  0  0  0  0
   -0.9758   -6.3537    4.6229 H   0  0  0  0  0  0  0  0  0  0  0  0
    6.7842   -4.8733    3.5767 H   0  0  0  0  0  0  0  0  0  0  0  0
    5.1111   -5.0155    4.1748 H   0  0  0  0  0  0  0  0  0  0  0  0
    6.4372   -7.1430    4.4336 H   0  0  0  0  0  0  0  0  0  0  0  0
    4.9913   -7.3398    3.4133 H   0  0  0  0  0  0  0  0  0  0  0  0
    7.8259   -6.8558    2.3885 H   0  0  0  0  0  0  0  0  0  0  0  0
    6.9861   -8.4249    2.3929 H   0  0  0  0  0  0  0  0  0  0  0  0
    6.8025   -7.3503    0.1746 H   0  0  0  0  0  0  0  0  0  0  0  0
    5.2027   -7.4597    0.9486 H   0  0  0  0  0  0  0  0  0  0  0  0
    5.4635   -5.2271   -0.0013 H   0  0  0  0  0  0  0  0  0  0  0  0
    7.0143   -5.0114    0.8506 H   0  0  0  0  0  0  0  0  0  0  0  0
    8.6559   -0.3900    2.6644 H   0  0  0  0  0  0  0  0  0  0  0  0
    7.6994   -1.8910    2.6545 H   0  0  0  0  0  0  0  0  0  0  0  0
    9.3325   -1.9706    0.8325 H   0  0  0  0  0  0  0  0  0  0  0  0
    7.6986   -1.8169    0.1432 H   0  0  0  0  0  0  0  0  0  0  0  0
    9.2237   -0.2542   -0.8252 H   0  0  0  0  0  0  0  0  0  0  0  0
    7.7021    1.5757    1.4536 H   0  0  0  0  0  0  0  0  0  0  0  0
    5.9306    1.6503    1.2966 H   0  0  0  0  0  0  0  0  0  0  0  0
    6.6152    2.9419    3.2604 H   0  0  0  0  0  0  0  0  0  0  0  0
    5.7504    1.4816    3.7968 H   0  0  0  0  0  0  0  0  0  0  0  0
    7.8004    1.7883    4.9839 H   0  0  0  0  0  0  0  0  0  0  0  0
  1  6  1  0  0  0  0
  1  2  1  0  0  0  0
  1 37  1  0  0  0  0
  1 38  1  0  0  0  0
  2  3  1  0  0  0  0
  2 39  1  0  0  0  0
  2 40  1  0  0  0  0
  3  4  1  0  0  0  0
  3 41  1  0  0  0  0
  3 42  1  0  0  0  0
  4  5  1  0  0  0  0
  4  7  1  0  0  0  0
  5  6  1  0  0  0  0
  5 43  1  0  0  0  0
  5 44  1  0  0  0  0
  6 45  1  0  0  0  0
  6 46  1  0  0  0  0
  7 29  2  0  0  0  0
  7  8  1  0  0  0  0
  8 13  2  0  0  0  0
  8  9  1  0  0  0  0
  9 10  2  0  0  0  0
  9 27  1  0  0  0  0
 10 11  1  0  0  0  0
 10 21  1  0  0  0  0
 11 12  2  0  0  0  0
 12 13  1  0  0  0  0
 12 14  1  0  0  0  0
 14 15  1  0  0  0  0
 14 18  1  0  0  0  0
 15 16  1  0  0  0  0
 15 47  1  0  0  0  0
 15 48  1  0  0  0  0
 16 17  1  0  0  0  0
 16 49  1  0  0  0  0
 16 50  1  0  0  0  0
 17 51  1  0  0  0  0
 18 19  1  0  0  0  0
 18 52  1  0  0  0  0
 18 53  1  0  0  0  0
 19 20  1  0  0  0  0
 19 54  1  0  0  0  0
 19 55  1  0  0  0  0
 20 56  1  0  0  0  0
 21 26  1  0  0  0  0
 21 22  1  0  0  0  0
 22 23  1  0  0  0  0
 22 57  1  0  0  0  0
 22 58  1  0  0  0  0
 23 24  1  0  0  0  0
 23 59  1  0  0  0  0
 23 60  1  0  0  0  0
 24 25  1  0  0  0  0
 24 61  1  0  0  0  0
 24 62  1  0  0  0  0
 25 26  1  0  0  0  0
 25 63  1  0  0  0  0
 25 64  1  0  0  0  0
 26 65  1  0  0  0  0
 26 66  1  0  0  0  0
 27 28  2  0  0  0  0
 28 29  1  0  0  0  0
 28 30  1  0  0  0  0
 30 31  1  0  0  0  0
 30 34  1  0  0  0  0
 31 32  1  0  0  0  0
 31 67  1  0  0  0  0
 31 68  1  0  0  0  0
 32 33  1  0  0  0  0
 32 69  1  0  0  0  0
 32 70  1  0  0  0  0
 33 71  1  0  0  0  0
 34 35  1  0  0  0  0
 34 72  1  0  0  0  0
 34 73  1  0  0  0  0
 35 36  1  0  0  0  0
 35 74  1  0  0  0  0
 35 75  1  0  0  0  0
 36 76  1  0  0  0  0
M  END
$$$$
