ZINC26985532
 OpenBabel08292219463D

100104  0  0  1  0  0  0  0  0999 V2000
   -2.4346    2.6119    6.1239 C   0  0  0  0  0  0  0  0  0  0  0  0
   -3.7432    1.8323    5.9804 C   0  0  0  0  0  0  0  0  0  0  0  0
   -4.7892    2.4114    6.9351 C   0  0  0  0  0  0  0  0  0  0  0  0
   -3.5003    0.3608    6.3218 C   0  0  0  0  0  0  0  0  0  0  0  0
   -4.2274    1.9403    4.6019 N   0  0  0  0  0  0  0  0  0  0  0  0
   -3.4673    1.4910    3.5836 C   0  0  0  0  0  0  0  0  0  0  0  0
   -2.3826    0.9972    3.8085 O   0  0  0  0  0  0  0  0  0  0  0  0
   -3.9653    1.6021    2.1656 C   0  0  2  0  0  0  0  0  0  0  0  0
   -4.1064    2.6604    1.9010 H   0  0  0  0  0  0  0  0  0  0  0  0
   -5.2763    0.8241    2.0237 C   0  0  0  0  0  0  0  0  0  0  0  0
   -5.0201   -0.6505    2.3414 C   0  0  1  0  0  0  0  0  0  0  0  0
   -4.6865   -0.7453    3.3853 H   0  0  0  0  0  0  0  0  0  0  0  0
   -6.3055   -1.4568    2.1525 C   0  0  0  0  0  0  0  0  0  0  0  0
   -6.0319   -2.9270    2.4789 C   0  0  0  0  0  0  0  0  0  0  0  0
   -4.9448   -3.4669    1.5481 C   0  0  0  0  0  0  0  0  0  0  0  0
   -3.6615   -2.6521    1.7280 C   0  0  0  0  0  0  0  0  0  0  0  0
   -3.9432   -1.1868    1.3938 C   0  0  2  0  0  0  0  0  0  0  0  0
   -4.2878   -1.1150    0.3517 H   0  0  0  0  0  0  0  0  0  0  0  0
   -2.6691   -0.3576    1.5602 C   0  0  0  0  0  0  0  0  0  0  0  0
   -2.9600    1.0487    1.2501 N   0  3  2  0  0  0  0  0  0  0  0  0
   -1.7327    1.8559    1.2657 C   0  0  0  0  0  0  0  0  0  0  0  0
   -0.8165    1.4131    0.1231 C   0  0  2  0  0  0  0  0  0  0  0  0
   -0.6598    0.3244    0.1365 H   0  0  0  0  0  0  0  0  0  0  0  0
    0.5123    2.1660    0.2139 C   0  0  2  0  0  0  0  0  0  0  0  0
    0.9869    1.9975    1.1918 H   0  0  0  0  0  0  0  0  0  0  0  0
    0.2695    3.6588   -0.0173 C   0  0  0  0  0  0  0  0  0  0  0  0
    1.5557    4.4155    0.1931 C   0  0  0  0  0  0  0  0  0  0  0  0
    1.8736    4.9031    1.4469 C   0  0  0  0  0  0  0  0  0  0  0  0
    3.0556    5.5929    1.6410 C   0  0  0  0  0  0  0  0  0  0  0  0
    3.9149    5.8043    0.5789 C   0  0  0  0  0  0  0  0  0  0  0  0
    3.5945    5.3213   -0.6761 C   0  0  0  0  0  0  0  0  0  0  0  0
    2.4149    4.6269   -0.8690 C   0  0  0  0  0  0  0  0  0  0  0  0
    1.4326    1.6573   -0.8061 N   0  0  0  0  0  0  0  0  0  0  0  0
    2.7639    1.7694   -0.6287 C   0  0  0  0  0  0  0  0  0  0  0  0
    3.2001    2.2914    0.3753 O   0  0  0  0  0  0  0  0  0  0  0  0
    3.7106    1.2460   -1.6780 C   0  0  2  0  0  0  0  0  0  0  0  0
    3.5557    1.7873   -2.6230 H   0  0  0  0  0  0  0  0  0  0  0  0
    3.4875   -0.2564   -1.8624 C   0  0  0  0  0  0  0  0  0  0  0  0
    3.8101   -0.9736   -0.5769 C   0  0  0  0  0  0  0  0  0  0  0  0
    4.1076   -0.3395    0.4132 O   0  0  0  0  0  0  0  0  0  0  0  0
    3.7681   -2.3198   -0.5275 N   0  0  0  0  0  0  0  0  0  0  0  0
    5.0918    1.4860   -1.2529 N   0  0  0  0  0  0  0  0  0  0  0  0
    6.0625    1.6449   -2.1743 C   0  0  0  0  0  0  0  0  0  0  0  0
    5.8100    1.5001   -3.3539 O   0  0  0  0  0  0  0  0  0  0  0  0
    7.4386    1.9964   -1.7484 C   0  0  0  0  0  0  0  0  0  0  0  0
    8.4366    2.1579   -2.7208 C   0  0  0  0  0  0  0  0  0  0  0  0
    9.7074    2.4819   -2.3419 C   0  0  0  0  0  0  0  0  0  0  0  0
    9.9721    2.6441   -0.9690 C   0  0  0  0  0  0  0  0  0  0  0  0
   11.2561    2.9778   -0.5087 C   0  0  0  0  0  0  0  0  0  0  0  0
   11.4751    3.1270    0.8266 C   0  0  0  0  0  0  0  0  0  0  0  0
   10.4412    2.9535    1.7459 C   0  0  0  0  0  0  0  0  0  0  0  0
    9.1851    2.6298    1.3371 C   0  0  0  0  0  0  0  0  0  0  0  0
    8.9177    2.4665   -0.0358 C   0  0  0  0  0  0  0  0  0  0  0  0
    7.6948    2.1552   -0.4645 N   0  0  0  0  0  0  0  0  0  0  0  0
   -1.4427    1.7014   -1.1286 O   0  0  0  0  0  0  0  0  0  0  0  0
   -1.6826    2.1955    5.4375 H   0  0  0  0  0  0  0  0  0  0  0  0
   -2.0711    2.5308    7.1589 H   0  0  0  0  0  0  0  0  0  0  0  0
   -2.6093    3.6698    5.8784 H   0  0  0  0  0  0  0  0  0  0  0  0
   -5.7300    1.8509    6.8319 H   0  0  0  0  0  0  0  0  0  0  0  0
   -4.9639    3.4693    6.6896 H   0  0  0  0  0  0  0  0  0  0  0  0
   -4.4257    2.3303    7.9701 H   0  0  0  0  0  0  0  0  0  0  0  0
   -4.4412   -0.1997    6.2186 H   0  0  0  0  0  0  0  0  0  0  0  0
   -3.1368    0.2797    7.3568 H   0  0  0  0  0  0  0  0  0  0  0  0
   -2.7483   -0.0555    5.6354 H   0  0  0  0  0  0  0  0  0  0  0  0
   -5.2112    2.3881    4.3980 H   0  0  0  0  0  0  0  0  0  0  0  0
   -6.0210    1.2297    2.7244 H   0  0  0  0  0  0  0  0  0  0  0  0
   -5.6507    0.9212    0.9939 H   0  0  0  0  0  0  0  0  0  0  0  0
   -7.0841   -1.0685    2.8256 H   0  0  0  0  0  0  0  0  0  0  0  0
   -6.6444   -1.3676    1.1098 H   0  0  0  0  0  0  0  0  0  0  0  0
   -5.6954   -3.0144    3.5225 H   0  0  0  0  0  0  0  0  0  0  0  0
   -6.9538   -3.5110    2.3408 H   0  0  0  0  0  0  0  0  0  0  0  0
   -4.7448   -4.5210    1.7906 H   0  0  0  0  0  0  0  0  0  0  0  0
   -5.2835   -3.3886    0.5045 H   0  0  0  0  0  0  0  0  0  0  0  0
   -3.3188   -2.7331    2.7701 H   0  0  0  0  0  0  0  0  0  0  0  0
   -2.8831   -3.0406    1.0548 H   0  0  0  0  0  0  0  0  0  0  0  0
   -2.3113   -0.4393    2.5972 H   0  0  0  0  0  0  0  0  0  0  0  0
   -1.8951   -0.7330    0.8746 H   0  0  0  0  0  0  0  0  0  0  0  0
   -1.9905    2.9177    1.1385 H   0  0  0  0  0  0  0  0  0  0  0  0
   -1.2146    1.7169    2.2260 H   0  0  0  0  0  0  0  0  0  0  0  0
   -0.0851    3.8175   -1.0464 H   0  0  0  0  0  0  0  0  0  0  0  0
   -0.4893    4.0211    0.6920 H   0  0  0  0  0  0  0  0  0  0  0  0
    1.2002    4.7418    2.2758 H   0  0  0  0  0  0  0  0  0  0  0  0
    3.3058    5.9706    2.6214 H   0  0  0  0  0  0  0  0  0  0  0  0
    4.8363    6.3472    0.7295 H   0  0  0  0  0  0  0  0  0  0  0  0
    4.2656    5.4868   -1.5059 H   0  0  0  0  0  0  0  0  0  0  0  0
    2.1644    4.2498   -1.8495 H   0  0  0  0  0  0  0  0  0  0  0  0
    1.0370    1.1838   -1.7168 H   0  0  0  0  0  0  0  0  0  0  0  0
    2.4370   -0.4408   -2.1315 H   0  0  0  0  0  0  0  0  0  0  0  0
    4.1421   -0.6286   -2.6642 H   0  0  0  0  0  0  0  0  0  0  0  0
    4.0036   -2.8434    0.4108 H   0  0  0  0  0  0  0  0  0  0  0  0
    3.4983   -2.8950   -1.4255 H   0  0  0  0  0  0  0  0  0  0  0  0
    5.3367    1.5365   -0.1817 H   0  0  0  0  0  0  0  0  0  0  0  0
    8.2002    2.0266   -3.7664 H   0  0  0  0  0  0  0  0  0  0  0  0
   10.4889    2.6108   -3.0761 H   0  0  0  0  0  0  0  0  0  0  0  0
   12.0657    3.1149   -1.2102 H   0  0  0  0  0  0  0  0  0  0  0  0
   12.4633    3.3836    1.1788 H   0  0  0  0  0  0  0  0  0  0  0  0
   10.6411    3.0779    2.7999 H   0  0  0  0  0  0  0  0  0  0  0  0
    8.3959    2.4984    2.0625 H   0  0  0  0  0  0  0  0  0  0  0  0
   -0.9311    1.4520   -2.0699 H   0  0  0  0  0  0  0  0  0  0  0  0
   -3.3799    1.0861    0.2341 H   0  0  0  0  0  0  0  0  0  0  0  0
  1  2  1  0  0  0  0
  1 56  1  0  0  0  0
  1 57  1  0  0  0  0
  1 58  1  0  0  0  0
  2  3  1  0  0  0  0
  2  4  1  0  0  0  0
  2  5  1  0  0  0  0
  3 59  1  0  0  0  0
  3 60  1  0  0  0  0
  3 61  1  0  0  0  0
  4 62  1  0  0  0  0
  4 63  1  0  0  0  0
  4 64  1  0  0  0  0
  5  6  1  0  0  0  0
  5 65  1  0  0  0  0
  6  7  2  0  0  0  0
  6  8  1  0  0  0  0
  8  9  1  6  0  0  0
  8 20  1  0  0  0  0
  8 10  1  0  0  0  0
 10 11  1  0  0  0  0
 10 66  1  0  0  0  0
 10 67  1  0  0  0  0
 11 12  1  1  0  0  0
 11 17  1  0  0  0  0
 11 13  1  0  0  0  0
 13 14  1  0  0  0  0
 13 68  1  0  0  0  0
 13 69  1  0  0  0  0
 14 15  1  0  0  0  0
 14 70  1  0  0  0  0
 14 71  1  0  0  0  0
 15 16  1  0  0  0  0
 15 72  1  0  0  0  0
 15 73  1  0  0  0  0
 16 17  1  0  0  0  0
 16 74  1  0  0  0  0
 16 75  1  0  0  0  0
 17 18  1  6  0  0  0
 17 19  1  0  0  0  0
 19 20  1  0  0  0  0
 19 76  1  0  0  0  0
 19 77  1  0  0  0  0
 20 21  1  0  0  0  0
 20100  1  6  0  0  0
 21 22  1  0  0  0  0
 21 78  1  0  0  0  0
 21 79  1  0  0  0  0
 22 23  1  1  0  0  0
 22 24  1  0  0  0  0
 22 55  1  0  0  0  0
 24 25  1  1  0  0  0
 24 26  1  0  0  0  0
 24 33  1  0  0  0  0
 26 27  1  0  0  0  0
 26 80  1  0  0  0  0
 26 81  1  0  0  0  0
 27 32  2  0  0  0  0
 27 28  1  0  0  0  0
 28 29  2  0  0  0  0
 28 82  1  0  0  0  0
 29 30  1  0  0  0  0
 29 83  1  0  0  0  0
 30 31  2  0  0  0  0
 30 84  1  0  0  0  0
 31 32  1  0  0  0  0
 31 85  1  0  0  0  0
 32 86  1  0  0  0  0
 33 34  1  0  0  0  0
 33 87  1  0  0  0  0
 34 35  2  0  0  0  0
 34 36  1  0  0  0  0
 36 37  1  6  0  0  0
 36 38  1  0  0  0  0
 36 42  1  0  0  0  0
 38 39  1  0  0  0  0
 38 88  1  0  0  0  0
 38 89  1  0  0  0  0
 39 40  2  0  0  0  0
 39 41  1  0  0  0  0
 41 90  1  0  0  0  0
 41 91  1  0  0  0  0
 42 43  1  0  0  0  0
 42 92  1  0  0  0  0
 43 44  2  0  0  0  0
 43 45  1  0  0  0  0
 45 54  2  0  0  0  0
 45 46  1  0  0  0  0
 46 47  2  0  0  0  0
 46 93  1  0  0  0  0
 47 48  1  0  0  0  0
 47 94  1  0  0  0  0
 48 53  2  0  0  0  0
 48 49  1  0  0  0  0
 49 50  2  0  0  0  0
 49 95  1  0  0  0  0
 50 51  1  0  0  0  0
 50 96  1  0  0  0  0
 51 52  2  0  0  0  0
 51 97  1  0  0  0  0
 52 53  1  0  0  0  0
 52 98  1  0  0  0  0
 53 54  1  0  0  0  0
 55 99  1  0  0  0  0
M  CHG  1  20   1
M  END
$$$$
