ZINC03860468
 OpenBabel08292219463D

 26 26  0  0  1  0  0  0  0  0999 V2000
   -0.0187    1.5258    0.0104 C   0  0  0  0  0  0  0  0  0  0  0  0
    0.0021   -0.0041    0.0020 C   0  0  2  0  0  0  0  0  0  0  0  0
    0.5883   -0.3550   -0.8473 H   0  0  0  0  0  0  0  0  0  0  0  0
   -1.4298   -0.5335   -0.1124 C   0  0  2  0  0  0  0  0  0  0  0  0
   -2.0272   -0.1498    0.7147 H   0  0  0  0  0  0  0  0  0  0  0  0
   -1.4057   -2.0641   -0.0595 C   0  0  1  0  0  0  0  0  0  0  0  0
   -0.8501   -2.4498   -0.9143 H   0  0  0  0  0  0  0  0  0  0  0  0
   -0.7236   -2.5086    1.2379 C   0  0  2  0  0  0  0  0  0  0  0  0
   -1.3066   -2.1648    2.0923 H   0  0  0  0  0  0  0  0  0  0  0  0
    0.6811   -1.9029    1.3002 C   0  0  1  0  0  0  0  0  0  0  0  0
    1.2762   -2.2788    0.4679 H   0  0  0  0  0  0  0  0  0  0  0  0
    0.5890   -0.4794    1.2152 O   0  0  0  0  0  0  0  0  0  0  0  0
    1.3031   -2.2676    2.5339 O   0  0  0  0  0  0  0  0  0  0  0  0
   -0.6292   -3.9743    1.2658 N   0  3  0  0  0  0  0  0  0  0  0  0
   -2.7437   -2.5648   -0.0939 O   0  0  0  0  0  0  0  0  0  0  0  0
   -1.9994   -0.1061   -1.3513 O   0  0  0  0  0  0  0  0  0  0  0  0
    1.3220    2.0204    0.0003 O   0  0  0  0  0  0  0  0  0  0  0  0
   -0.5459    1.8868   -0.8726 H   0  0  0  0  0  0  0  0  0  0  0  0
   -0.5289    1.8773    0.9072 H   0  0  0  0  0  0  0  0  0  0  0  0
    2.1980   -1.9175    2.6418 H   0  0  0  0  0  0  0  0  0  0  0  0
   -0.0876   -4.2915    0.4758 H   0  0  0  0  0  0  0  0  0  0  0  0
   -0.1797   -4.2662    2.1207 H   0  0  0  0  0  0  0  0  0  0  0  0
   -3.2369   -2.3150   -0.8874 H   0  0  0  0  0  0  0  0  0  0  0  0
   -2.0418    0.8545   -1.4541 H   0  0  0  0  0  0  0  0  0  0  0  0
    1.3852    2.9853    0.0049 H   0  0  0  0  0  0  0  0  0  0  0  0
   -1.5554   -4.3719    1.2200 H   0  0  0  0  0  0  0  0  0  0  0  0
  1  2  1  0  0  0  0
  1 17  1  0  0  0  0
  1 18  1  0  0  0  0
  1 19  1  0  0  0  0
  2  3  1  6  0  0  0
  2 12  1  0  0  0  0
  2  4  1  0  0  0  0
  4  5  1  1  0  0  0
  4  6  1  0  0  0  0
  4 16  1  0  0  0  0
  6  7  1  6  0  0  0
  6  8  1  0  0  0  0
  6 15  1  0  0  0  0
  8  9  1  1  0  0  0
  8 10  1  0  0  0  0
  8 14  1  0  0  0  0
 10 11  1  6  0  0  0
 10 12  1  0  0  0  0
 10 13  1  0  0  0  0
 13 20  1  0  0  0  0
 14 21  1  0  0  0  0
 14 22  1  0  0  0  0
 14 26  1  0  0  0  0
 15 23  1  0  0  0  0
 16 24  1  0  0  0  0
 17 25  1  0  0  0  0
M  CHG  1  14   1
M  END
$$$$
