ZINC03812989
 OpenBabel08292219463D

 54 59  0  0  1  0  0  0  0  0999 V2000
   -0.2681    1.2448    0.4803 C   0  0  0  0  0  0  0  0  0  0  0  0
    0.8811    2.0121    0.5848 C   0  0  0  0  0  0  0  0  0  0  0  0
    2.1651    1.4725    0.5602 C   0  0  0  0  0  0  0  0  0  0  0  0
    2.2691    0.0861    0.4019 C   0  0  0  0  0  0  0  0  0  0  0  0
    1.0960   -0.6393    0.2476 C   0  0  0  0  0  0  0  0  0  0  0  0
   -0.1778   -0.1269    0.3246 C   0  0  0  0  0  0  0  0  0  0  0  0
   -1.3429   -1.0625    0.2973 C   0  0  0  0  0  0  0  0  0  0  0  0
   -0.9454   -2.5135    0.0880 C   0  0  2  0  0  0  0  0  0  0  0  0
   -1.7132   -3.1384    0.5441 H   0  0  0  0  0  0  0  0  0  0  0  0
    0.3975   -2.9012    0.7039 C   0  0  1  0  0  0  0  0  0  0  0  0
    1.4808   -2.0877    0.0612 C   0  0  1  0  0  0  0  0  0  0  0  0
    1.5182   -2.4045   -1.4351 C   0  0  0  0  0  0  0  0  0  0  0  0
    0.1435   -2.0652   -2.0252 C   0  0  0  0  0  0  0  0  0  0  0  0
   -0.9052   -2.8314   -1.3456 N   0  3  2  0  0  0  0  0  0  0  0  0
   -2.2056   -2.5084   -1.9478 C   0  0  0  0  0  0  0  0  0  0  0  0
   -2.2317   -2.9971   -3.3975 C   0  0  0  0  0  0  0  0  0  0  0  0
   -1.6784   -1.9733   -4.4027 C   0  0  0  0  0  0  0  0  0  0  0  0
   -2.8185   -2.3982   -5.3432 C   0  0  0  0  0  0  0  0  0  0  0  0
   -3.5959   -2.8163   -4.0840 C   0  0  0  0  0  0  0  0  0  0  0  0
    2.8637   -2.0987    0.6883 C   0  0  1  0  0  0  0  0  0  0  0  0
    3.5000   -2.8517    0.2233 H   0  0  0  0  0  0  0  0  0  0  0  0
    3.3341   -0.7449    0.3859 O   0  0  0  0  0  0  0  0  0  0  0  0
    2.8598   -2.2454    2.1971 C   0  0  2  0  0  0  0  0  0  0  0  0
    3.8130   -2.6780    2.5009 H   0  0  0  0  0  0  0  0  0  0  0  0
    1.7499   -3.0983    2.7656 C   0  0  0  0  0  0  0  0  0  0  0  0
    0.4142   -2.6381    2.2061 C   0  0  0  0  0  0  0  0  0  0  0  0
    2.7583   -0.9418    2.7737 O   0  0  0  0  0  0  0  0  0  0  0  0
    0.6456   -4.2879    0.4635 O   0  0  0  0  0  0  0  0  0  0  0  0
    3.2682    2.2580    0.6840 O   0  0  0  0  0  0  0  0  0  0  0  0
   -1.2375    1.7187    0.5252 H   0  0  0  0  0  0  0  0  0  0  0  0
    0.7760    3.0818    0.6902 H   0  0  0  0  0  0  0  0  0  0  0  0
   -1.8797   -0.9799    1.2424 H   0  0  0  0  0  0  0  0  0  0  0  0
   -2.0124   -0.7637   -0.5092 H   0  0  0  0  0  0  0  0  0  0  0  0
    2.2863   -1.8023   -1.9203 H   0  0  0  0  0  0  0  0  0  0  0  0
    1.7314   -3.4633   -1.5824 H   0  0  0  0  0  0  0  0  0  0  0  0
   -0.0498   -0.9998   -1.9003 H   0  0  0  0  0  0  0  0  0  0  0  0
    0.1369   -2.3083   -3.0877 H   0  0  0  0  0  0  0  0  0  0  0  0
   -2.9990   -2.9996   -1.3845 H   0  0  0  0  0  0  0  0  0  0  0  0
   -2.3584   -1.4294   -1.9253 H   0  0  0  0  0  0  0  0  0  0  0  0
   -1.8129   -3.9965   -3.5148 H   0  0  0  0  0  0  0  0  0  0  0  0
   -1.7556   -0.9409   -4.0617 H   0  0  0  0  0  0  0  0  0  0  0  0
   -0.6863   -2.2228   -4.7787 H   0  0  0  0  0  0  0  0  0  0  0  0
   -3.2735   -1.5667   -5.8813 H   0  0  0  0  0  0  0  0  0  0  0  0
   -2.5594   -3.2335   -5.9938 H   0  0  0  0  0  0  0  0  0  0  0  0
   -4.1517   -3.7464   -4.2026 H   0  0  0  0  0  0  0  0  0  0  0  0
   -4.1973   -2.0143   -3.6558 H   0  0  0  0  0  0  0  0  0  0  0  0
    1.9344   -4.1410    2.5072 H   0  0  0  0  0  0  0  0  0  0  0  0
    1.7440   -2.9977    3.8510 H   0  0  0  0  0  0  0  0  0  0  0  0
    0.2470   -1.5781    2.3968 H   0  0  0  0  0  0  0  0  0  0  0  0
   -0.3626   -3.2281    2.6926 H   0  0  0  0  0  0  0  0  0  0  0  0
    2.7487   -0.9390    3.7406 H   0  0  0  0  0  0  0  0  0  0  0  0
   -0.0226   -4.8777    0.8386 H   0  0  0  0  0  0  0  0  0  0  0  0
    3.5613    2.3834    1.5970 H   0  0  0  0  0  0  0  0  0  0  0  0
   -0.7231   -3.8171   -1.4614 H   0  0  0  0  0  0  0  0  0  0  0  0
  1  6  2  0  0  0  0
  1  2  1  0  0  0  0
  1 30  1  0  0  0  0
  2  3  2  0  0  0  0
  2 31  1  0  0  0  0
  3  4  1  0  0  0  0
  3 29  1  0  0  0  0
  4 22  1  0  0  0  0
  4  5  2  0  0  0  0
  5  6  1  0  0  0  0
  6  7  1  0  0  0  0
  7  8  1  0  0  0  0
  7 32  1  0  0  0  0
  7 33  1  0  0  0  0
  8  9  1  1  0  0  0
  8 14  1  0  0  0  0
  8 10  1  0  0  0  0
 10 26  1  0  0  0  0
 10 11  1  0  0  0  0
 10 28  1  6  0  0  0
 11  5  1  1  0  0  0
 11 12  1  0  0  0  0
 11 20  1  0  0  0  0
 12 13  1  0  0  0  0
 12 34  1  0  0  0  0
 12 35  1  0  0  0  0
 13 14  1  0  0  0  0
 13 36  1  0  0  0  0
 13 37  1  0  0  0  0
 14 15  1  0  0  0  0
 14 54  1  6  0  0  0
 15 16  1  0  0  0  0
 15 38  1  0  0  0  0
 15 39  1  0  0  0  0
 16 19  1  0  0  0  0
 16 17  1  0  0  0  0
 16 40  1  0  0  0  0
 17 18  1  0  0  0  0
 17 41  1  0  0  0  0
 17 42  1  0  0  0  0
 18 19  1  0  0  0  0
 18 43  1  0  0  0  0
 18 44  1  0  0  0  0
 19 45  1  0  0  0  0
 19 46  1  0  0  0  0
 20 21  1  6  0  0  0
 20 22  1  0  0  0  0
 20 23  1  0  0  0  0
 23 24  1  1  0  0  0
 23 25  1  0  0  0  0
 23 27  1  0  0  0  0
 25 26  1  0  0  0  0
 25 47  1  0  0  0  0
 25 48  1  0  0  0  0
 26 49  1  0  0  0  0
 26 50  1  0  0  0  0
 27 51  1  0  0  0  0
 28 52  1  0  0  0  0
 29 53  1  0  0  0  0
M  CHG  1  14   1
M  END
$$$$
