ZINC01530981
 OpenBabel08292219463D

 48 49  0  0  1  0  0  0  0  0999 V2000
   -0.0187    1.5258    0.0104 C   0  0  0  0  0  0  0  0  0  0  0  0
    0.0021   -0.0041    0.0020 C   0  0  0  0  0  0  0  0  0  0  0  0
    0.7421   -0.5109    1.2415 C   0  0  0  0  0  0  0  0  0  0  0  0
   -1.4333   -0.5336    0.0129 C   0  0  0  0  0  0  0  0  0  0  0  0
    0.6911   -0.4788   -1.2091 C   0  0  0  0  0  0  0  0  0  0  0  0
    1.2406   -0.8574   -2.1750 C   0  0  0  0  0  0  0  0  0  0  0  0
    1.9108   -1.3192   -3.3531 C   0  0  0  0  0  0  0  0  0  0  0  0
    2.0479   -2.6226   -3.5717 C   0  0  0  0  0  0  0  0  0  0  0  0
    2.7533   -3.1086   -4.8116 C   0  0  0  0  0  0  0  0  0  0  0  0
    3.8503   -4.0082   -4.4301 N   0  3  2  0  0  0  0  0  0  0  0  0
    4.8621   -3.2547   -3.6775 C   0  0  0  0  0  0  0  0  0  0  0  0
    4.4614   -4.5755   -5.6395 C   0  0  0  0  0  0  0  0  0  0  0  0
    5.5039   -5.5904   -5.2468 C   0  0  0  0  0  0  0  0  0  0  0  0
    6.8222   -5.2513   -5.2444 C   0  0  0  0  0  0  0  0  0  0  0  0
    7.8002   -6.1760   -4.8843 C   0  0  0  0  0  0  0  0  0  0  0  0
    7.4658   -7.4457   -4.5250 C   0  0  0  0  0  0  0  0  0  0  0  0
    6.1151   -7.8326   -4.5154 C   0  0  0  0  0  0  0  0  0  0  0  0
    5.1197   -6.8899   -4.8757 C   0  0  0  0  0  0  0  0  0  0  0  0
    3.7682   -7.2754   -4.8605 C   0  0  0  0  0  0  0  0  0  0  0  0
    3.4336   -8.5429   -4.4955 C   0  0  0  0  0  0  0  0  0  0  0  0
    4.4119   -9.4679   -4.1349 C   0  0  0  0  0  0  0  0  0  0  0  0
    5.7313   -9.1345   -4.1507 C   0  0  0  0  0  0  0  0  0  0  0  0
    1.0039    1.9031    0.0027 H   0  0  0  0  0  0  0  0  0  0  0  0
   -0.5459    1.8868   -0.8726 H   0  0  0  0  0  0  0  0  0  0  0  0
   -0.5289    1.8773    0.9072 H   0  0  0  0  0  0  0  0  0  0  0  0
    0.2319   -0.1594    2.1383 H   0  0  0  0  0  0  0  0  0  0  0  0
    0.7568   -1.6008    1.2356 H   0  0  0  0  0  0  0  0  0  0  0  0
    1.7647   -0.1336    1.2338 H   0  0  0  0  0  0  0  0  0  0  0  0
   -1.9605   -0.1726   -0.8702 H   0  0  0  0  0  0  0  0  0  0  0  0
   -1.4185   -1.6235    0.0069 H   0  0  0  0  0  0  0  0  0  0  0  0
   -1.9435   -0.1821    0.9097 H   0  0  0  0  0  0  0  0  0  0  0  0
    2.3049   -0.6081   -4.0640 H   0  0  0  0  0  0  0  0  0  0  0  0
    1.6539   -3.3338   -2.8608 H   0  0  0  0  0  0  0  0  0  0  0  0
    2.0468   -3.6454   -5.4448 H   0  0  0  0  0  0  0  0  0  0  0  0
    3.1560   -2.2560   -5.3583 H   0  0  0  0  0  0  0  0  0  0  0  0
    4.4086   -2.8337   -2.7801 H   0  0  0  0  0  0  0  0  0  0  0  0
    5.6760   -3.9221   -3.3944 H   0  0  0  0  0  0  0  0  0  0  0  0
    5.2524   -2.4491   -4.2995 H   0  0  0  0  0  0  0  0  0  0  0  0
    3.6927   -5.0588   -6.2425 H   0  0  0  0  0  0  0  0  0  0  0  0
    4.9295   -3.7790   -6.2179 H   0  0  0  0  0  0  0  0  0  0  0  0
    7.1145   -4.2505   -5.5261 H   0  0  0  0  0  0  0  0  0  0  0  0
    8.8392   -5.8812   -4.8908 H   0  0  0  0  0  0  0  0  0  0  0  0
    8.2347   -8.1521   -4.2489 H   0  0  0  0  0  0  0  0  0  0  0  0
    2.9992   -6.5691   -5.1367 H   0  0  0  0  0  0  0  0  0  0  0  0
    2.3943   -8.8365   -4.4846 H   0  0  0  0  0  0  0  0  0  0  0  0
    4.1193  -10.4674   -3.8489 H   0  0  0  0  0  0  0  0  0  0  0  0
    6.4784   -9.8620   -3.8696 H   0  0  0  0  0  0  0  0  0  0  0  0
    3.4890   -4.7538   -3.8544 H   0  0  0  0  0  0  0  0  0  0  0  0
  1  2  1  0  0  0  0
  1 23  1  0  0  0  0
  1 24  1  0  0  0  0
  1 25  1  0  0  0  0
  2  3  1  0  0  0  0
  2  4  1  0  0  0  0
  2  5  1  0  0  0  0
  3 26  1  0  0  0  0
  3 27  1  0  0  0  0
  3 28  1  0  0  0  0
  4 29  1  0  0  0  0
  4 30  1  0  0  0  0
  4 31  1  0  0  0  0
  5  6  3  0  0  0  0
  6  7  1  0  0  0  0
  7  8  2  0  0  0  0
  7 32  1  0  0  0  0
  8  9  1  0  0  0  0
  8 33  1  0  0  0  0
  9 10  1  0  0  0  0
  9 34  1  0  0  0  0
  9 35  1  0  0  0  0
 10 11  1  0  0  0  0
 10 12  1  0  0  0  0
 10 48  1  1  0  0  0
 11 36  1  0  0  0  0
 11 37  1  0  0  0  0
 11 38  1  0  0  0  0
 12 13  1  0  0  0  0
 12 39  1  0  0  0  0
 12 40  1  0  0  0  0
 13 18  2  0  0  0  0
 13 14  1  0  0  0  0
 14 15  2  0  0  0  0
 14 41  1  0  0  0  0
 15 16  1  0  0  0  0
 15 42  1  0  0  0  0
 16 17  2  0  0  0  0
 16 43  1  0  0  0  0
 17 22  1  0  0  0  0
 17 18  1  0  0  0  0
 18 19  1  0  0  0  0
 19 20  2  0  0  0  0
 19 44  1  0  0  0  0
 20 21  1  0  0  0  0
 20 45  1  0  0  0  0
 21 22  2  0  0  0  0
 21 46  1  0  0  0  0
 22 47  1  0  0  0  0
M  CHG  1  10   1
M  END
$$$$
