ZINC00000106
 OpenBabel08292219463D

 41 41  0  0  1  0  0  0  0  0999 V2000
   -2.5589    3.8643    0.0472 C   0  0  0  0  0  0  0  0  0  0  0  0
   -1.2414    3.1328    0.0307 C   0  0  0  0  0  0  0  0  0  0  0  0
   -1.2193    1.7503    0.0173 C   0  0  0  0  0  0  0  0  0  0  0  0
   -0.0126    1.0758    0.0080 C   0  0  0  0  0  0  0  0  0  0  0  0
    1.1755    1.7829    0.0004 C   0  0  0  0  0  0  0  0  0  0  0  0
    1.1553    3.1709    0.0081 C   0  0  0  0  0  0  0  0  0  0  0  0
   -0.0572    3.8443    0.0233 C   0  0  0  0  0  0  0  0  0  0  0  0
    2.3217    3.8688    0.0011 O   0  0  0  0  0  0  0  0  0  0  0  0
    2.2247    5.2945    0.0097 C   0  0  0  0  0  0  0  0  0  0  0  0
    3.6292    5.9013    0.0001 C   0  0  2  0  0  0  0  0  0  0  0  0
    4.2042    5.4997    0.8345 H   0  0  0  0  0  0  0  0  0  0  0  0
    3.5287    7.4220    0.1349 C   0  0  0  0  0  0  0  0  0  0  0  0
    4.8197    9.4669    0.2536 C   0  0  0  0  0  0  0  0  0  0  0  0
    4.1344    9.8371    1.5704 C   0  0  0  0  0  0  0  0  0  0  0  0
    6.2398   10.0362    0.2401 C   0  0  0  0  0  0  0  0  0  0  0  0
    4.0252   10.0504   -0.9165 C   0  0  0  0  0  0  0  0  0  0  0  0
    4.2810    5.5741   -1.2288 O   0  0  0  0  0  0  0  0  0  0  0  0
    2.6907    0.9359   -0.0180 Cl  0  0  0  0  0  0  0  0  0  0  0  0
   -2.8863    4.0462   -0.9764 H   0  0  0  0  0  0  0  0  0  0  0  0
   -3.3036    3.2599    0.5650 H   0  0  0  0  0  0  0  0  0  0  0  0
   -2.4395    4.8160    0.5651 H   0  0  0  0  0  0  0  0  0  0  0  0
   -2.1464    1.1963    0.0187 H   0  0  0  0  0  0  0  0  0  0  0  0
    0.0021   -0.0041    0.0020 H   0  0  0  0  0  0  0  0  0  0  0  0
   -0.0756    4.9241    0.0289 H   0  0  0  0  0  0  0  0  0  0  0  0
    1.6792    5.6268   -0.8736 H   0  0  0  0  0  0  0  0  0  0  0  0
    1.6955    5.6173    0.9063 H   0  0  0  0  0  0  0  0  0  0  0  0
    2.9537    7.8235   -0.6995 H   0  0  0  0  0  0  0  0  0  0  0  0
    3.0314    7.6716    1.0722 H   0  0  0  0  0  0  0  0  0  0  0  0
    4.7004    9.4214    2.4040 H   0  0  0  0  0  0  0  0  0  0  0  0
    4.0918   10.9221    1.6654 H   0  0  0  0  0  0  0  0  0  0  0  0
    3.1227    9.4316    1.5801 H   0  0  0  0  0  0  0  0  0  0  0  0
    6.7281    9.7724   -0.6981 H   0  0  0  0  0  0  0  0  0  0  0  0
    6.1972   11.1212    0.3350 H   0  0  0  0  0  0  0  0  0  0  0  0
    6.8059    9.6205    1.0737 H   0  0  0  0  0  0  0  0  0  0  0  0
    3.0135    9.6448   -0.9069 H   0  0  0  0  0  0  0  0  0  0  0  0
    3.9826   11.1354   -0.8216 H   0  0  0  0  0  0  0  0  0  0  0  0
    4.5135    9.7866   -1.8547 H   0  0  0  0  0  0  0  0  0  0  0  0
    3.8237    5.9007   -2.0157 H   0  0  0  0  0  0  0  0  0  0  0  0
    4.8862    7.9989    0.1248 N   0  3  0  0  0  0  0  0  0  0  0  0
    5.3504    7.7571   -0.7585 H   0  0  0  0  0  0  0  0  0  0  0  0
    5.4236    7.6140    0.9105 H   0  0  0  0  0  0  0  0  0  0  0  0
  1  2  1  0  0  0  0
  1 19  1  0  0  0  0
  1 20  1  0  0  0  0
  1 21  1  0  0  0  0
  2  7  2  0  0  0  0
  2  3  1  0  0  0  0
  3  4  2  0  0  0  0
  3 22  1  0  0  0  0
  4  5  1  0  0  0  0
  4 23  1  0  0  0  0
  5  6  2  0  0  0  0
  5 18  1  0  0  0  0
  6  7  1  0  0  0  0
  6  8  1  0  0  0  0
  7 24  1  0  0  0  0
  8  9  1  0  0  0  0
  9 10  1  0  0  0  0
  9 25  1  0  0  0  0
  9 26  1  0  0  0  0
 10 11  1  1  0  0  0
 10 12  1  0  0  0  0
 10 17  1  0  0  0  0
 12 27  1  0  0  0  0
 12 28  1  0  0  0  0
 12 39  1  0  0  0  0
 13 14  1  0  0  0  0
 13 15  1  0  0  0  0
 13 16  1  0  0  0  0
 13 39  1  0  0  0  0
 14 29  1  0  0  0  0
 14 30  1  0  0  0  0
 14 31  1  0  0  0  0
 15 32  1  0  0  0  0
 15 33  1  0  0  0  0
 15 34  1  0  0  0  0
 16 35  1  0  0  0  0
 16 36  1  0  0  0  0
 16 37  1  0  0  0  0
 17 38  1  0  0  0  0
 39 40  1  0  0  0  0
 39 41  1  0  0  0  0
M  CHG  1  39   1
M  END
$$$$
