ZINC03927200
 OpenBabel08292219463D

 57 63  0  0  1  0  0  0  0  0999 V2000
   -4.5180    0.6441    0.2482 C   0  0  0  0  0  0  0  0  0  0  0  0
   -3.9644    0.2155   -1.1091 C   0  0  2  0  0  0  0  0  0  0  0  0
   -4.6407    1.0703   -2.1745 C   0  0  0  0  0  0  0  0  0  0  0  0
   -6.1155    0.7126   -2.3283 C   0  0  0  0  0  0  0  0  0  0  0  0
   -6.2347   -0.7649   -2.6268 C   0  0  0  0  0  0  0  0  0  0  0  0
   -7.1100   -1.1797   -3.3665 O   0  0  0  0  0  0  0  0  0  0  0  0
   -5.2896   -1.6875   -1.9991 C   0  0  0  0  0  0  0  0  0  0  0  0
   -4.2374   -1.2466   -1.3074 C   0  0  0  0  0  0  0  0  0  0  0  0
   -3.2892   -2.2733   -0.7370 C   0  0  2  0  0  0  0  0  0  0  0  0
   -3.2370   -3.2116   -1.3004 H   0  0  0  0  0  0  0  0  0  0  0  0
   -3.0888   -2.3677    0.7688 C   0  0  0  0  0  0  0  0  0  0  0  0
   -1.9859   -1.7768   -0.1180 C   0  0  2  0  0  0  0  0  0  0  0  0
   -1.0914   -2.3763   -0.2802 H   0  0  0  0  0  0  0  0  0  0  0  0
   -1.7470   -0.2678   -0.0008 C   0  0  2  0  0  0  0  0  0  0  0  0
   -2.1066    0.0644    0.9618 H   0  0  0  0  0  0  0  0  0  0  0  0
   -2.4562    0.4509   -1.1533 C   0  0  2  0  0  0  0  0  0  0  0  0
   -2.0855   -0.0033   -2.0896 H   0  0  0  0  0  0  0  0  0  0  0  0
   -2.1321    1.9349   -1.2201 C   0  0  0  0  0  0  0  0  0  0  0  0
   -0.6191    2.2045   -1.2202 C   0  0  0  0  0  0  0  0  0  0  0  0
   -0.0188    1.5376    0.0105 C   0  0  1  0  0  0  0  0  0  0  0  0
   -0.2704    0.0256   -0.1558 C   0  0  1  0  0  0  0  0  0  0  0  0
   -0.0116   -0.2391   -1.2072 H   0  0  0  0  0  0  0  0  0  0  0  0
    0.7259   -0.6845    0.7314 C   0  0  2  0  0  0  0  0  0  0  0  0
    0.9061   -1.7469    0.4949 H   0  0  0  0  0  0  0  0  0  0  0  0
    1.2133   -0.1773    2.0773 C   0  0  0  0  0  0  0  0  0  0  0  0
    1.9320    0.2914    0.8135 C   0  0  2  0  0  0  0  0  0  0  0  0
    2.9518   -0.0520    0.6171 H   0  0  0  0  0  0  0  0  0  0  0  0
    1.4931    1.6114    0.1491 C   0  0  1  0  0  0  0  0  0  0  0  0
    2.1898    1.7668   -1.2115 C   0  0  0  0  0  0  0  0  0  0  0  0
    3.4404    2.5952   -0.8278 C   0  0  0  0  0  0  0  0  0  0  0  0
    3.0592    3.2630    0.4763 C   0  0  0  0  0  0  0  0  0  0  0  0
    3.6976    4.1379    1.0156 O   0  0  0  0  0  0  0  0  0  0  0  0
    1.9131    2.7474    0.9432 O   0  0  0  0  0  0  0  0  0  0  0  0
   -0.6765    2.1290    1.2571 C   0  0  0  0  0  0  0  0  0  0  0  0
   -4.3147    1.7034    0.4055 H   0  0  0  0  0  0  0  0  0  0  0  0
   -5.5942    0.4732    0.2721 H   0  0  0  0  0  0  0  0  0  0  0  0
   -4.0401    0.0616    1.0359 H   0  0  0  0  0  0  0  0  0  0  0  0
   -4.5541    2.1188   -1.8881 H   0  0  0  0  0  0  0  0  0  0  0  0
   -4.1288    0.9154   -3.1241 H   0  0  0  0  0  0  0  0  0  0  0  0
   -6.5078    1.2343   -3.0859 H   0  0  0  0  0  0  0  0  0  0  0  0
   -6.6673    0.9568   -1.4206 H   0  0  0  0  0  0  0  0  0  0  0  0
   -5.4389   -2.7554   -2.1022 H   0  0  0  0  0  0  0  0  0  0  0  0
   -3.6518   -1.6903    1.4067 H   0  0  0  0  0  0  0  0  0  0  0  0
   -2.9167   -3.3623    1.1892 H   0  0  0  0  0  0  0  0  0  0  0  0
   -2.5391    2.3309   -2.1629 H   0  0  0  0  0  0  0  0  0  0  0  0
   -2.6140    2.4727   -0.4118 H   0  0  0  0  0  0  0  0  0  0  0  0
   -0.4297    3.2761   -1.1836 H   0  0  0  0  0  0  0  0  0  0  0  0
   -0.1745    1.7767   -2.1196 H   0  0  0  0  0  0  0  0  0  0  0  0
    0.6177    0.5241    2.6426 H   0  0  0  0  0  0  0  0  0  0  0  0
    1.7561   -0.8965    2.7097 H   0  0  0  0  0  0  0  0  0  0  0  0
    2.4736    0.7957   -1.6155 H   0  0  0  0  0  0  0  0  0  0  0  0
    1.5689    2.3175   -1.9156 H   0  0  0  0  0  0  0  0  0  0  0  0
    4.2991    1.9401   -0.6835 H   0  0  0  0  0  0  0  0  0  0  0  0
    3.6521    3.3410   -1.5926 H   0  0  0  0  0  0  0  0  0  0  0  0
   -0.1879    1.7341    2.1478 H   0  0  0  0  0  0  0  0  0  0  0  0
   -0.5779    3.2144    1.2396 H   0  0  0  0  0  0  0  0  0  0  0  0
   -1.7328    1.8603    1.2728 H   0  0  0  0  0  0  0  0  0  0  0  0
  1 35  1  0  0  0  0
  1 36  1  0  0  0  0
  1 37  1  0  0  0  0
  2  1  1  1  0  0  0
  2  8  1  0  0  0  0
  2 16  1  0  0  0  0
  2  3  1  0  0  0  0
  3  4  1  0  0  0  0
  3 38  1  0  0  0  0
  3 39  1  0  0  0  0
  4  5  1  0  0  0  0
  4 40  1  0  0  0  0
  4 41  1  0  0  0  0
  5  6  2  0  0  0  0
  5  7  1  0  0  0  0
  7  8  2  0  0  0  0
  7 42  1  0  0  0  0
  8  9  1  0  0  0  0
  9 10  1  6  0  0  0
  9 12  1  0  0  0  0
  9 11  1  0  0  0  0
 11 12  1  0  0  0  0
 11 43  1  0  0  0  0
 11 44  1  0  0  0  0
 12 13  1  6  0  0  0
 12 14  1  0  0  0  0
 14 15  1  1  0  0  0
 14 21  1  0  0  0  0
 14 16  1  0  0  0  0
 16 17  1  6  0  0  0
 16 18  1  0  0  0  0
 18 19  1  0  0  0  0
 18 45  1  0  0  0  0
 18 46  1  0  0  0  0
 19 20  1  0  0  0  0
 19 47  1  0  0  0  0
 19 48  1  0  0  0  0
 20 28  1  0  0  0  0
 20 21  1  0  0  0  0
 20 34  1  1  0  0  0
 21 22  1  6  0  0  0
 21 23  1  0  0  0  0
 23 24  1  6  0  0  0
 23 26  1  0  0  0  0
 23 25  1  0  0  0  0
 25 26  1  0  0  0  0
 25 49  1  0  0  0  0
 25 50  1  0  0  0  0
 26 27  1  6  0  0  0
 26 28  1  0  0  0  0
 28 33  1  1  0  0  0
 28 29  1  0  0  0  0
 29 30  1  0  0  0  0
 29 51  1  0  0  0  0
 29 52  1  0  0  0  0
 30 31  1  0  0  0  0
 30 53  1  0  0  0  0
 30 54  1  0  0  0  0
 31 32  2  0  0  0  0
 31 33  1  0  0  0  0
 34 55  1  0  0  0  0
 34 56  1  0  0  0  0
 34 57  1  0  0  0  0
M  END
$$$$
