ZINC01482162
 OpenBabel08292219463D

 47 49  0  0  1  0  0  0  0  0999 V2000
   -0.8949    1.7969   -1.0201 C   0  0  0  0  0  0  0  0  0  0  0  0
   -0.0127    1.0858    0.0080 C   0  0  1  0  0  0  0  0  0  0  0  0
    0.0629    0.0288   -0.2473 H   0  0  0  0  0  0  0  0  0  0  0  0
    1.3619    1.7034    0.0031 C   0  0  0  0  0  0  0  0  0  0  0  0
    1.5617    2.9208   -0.6204 C   0  0  0  0  0  0  0  0  0  0  0  0
    2.8288    3.4831   -0.6139 C   0  0  0  0  0  0  0  0  0  0  0  0
    3.8547    2.7913    0.0122 C   0  0  0  0  0  0  0  0  0  0  0  0
    3.5807    1.5758    0.6096 C   0  0  0  0  0  0  0  0  0  0  0  0
    2.3613    1.0736    0.5890 N   0  0  0  0  0  0  0  0  0  0  0  0
   -0.6230    1.2292    1.3784 C   0  0  0  0  0  0  0  0  0  0  0  0
   -0.9885    0.2160    2.1441 C   0  0  0  0  0  0  0  0  0  0  0  0
   -1.5510    0.7732    3.4309 C   0  0  0  0  0  0  0  0  0  0  0  0
   -1.4559    2.2734    3.2953 C   0  0  0  0  0  0  0  0  0  0  0  0
   -0.8851    2.5185    2.0444 C   0  0  0  0  0  0  0  0  0  0  0  0
   -0.6786    3.8384    1.6368 C   0  0  0  0  0  0  0  0  0  0  0  0
   -1.0280    4.8788    2.4726 C   0  0  0  0  0  0  0  0  0  0  0  0
   -1.5873    4.6230    3.7116 C   0  0  0  0  0  0  0  0  0  0  0  0
   -1.8008    3.3172    4.1213 C   0  0  0  0  0  0  0  0  0  0  0  0
   -0.8650   -1.2446    1.7940 C   0  0  0  0  0  0  0  0  0  0  0  0
    0.4379   -1.7995    2.3732 C   0  0  0  0  0  0  0  0  0  0  0  0
    0.7144   -3.4058    0.5827 C   0  0  0  0  0  0  0  0  0  0  0  0
    1.6681   -3.8480    2.7639 C   0  0  0  0  0  0  0  0  0  0  0  0
   -0.9706    2.8539   -0.7648 H   0  0  0  0  0  0  0  0  0  0  0  0
   -0.4535    1.6932   -2.0113 H   0  0  0  0  0  0  0  0  0  0  0  0
   -1.8892    1.3502   -1.0165 H   0  0  0  0  0  0  0  0  0  0  0  0
    0.7401    3.4295   -1.1026 H   0  0  0  0  0  0  0  0  0  0  0  0
    3.0136    4.4350   -1.0894 H   0  0  0  0  0  0  0  0  0  0  0  0
    4.8551    3.1976    0.0331 H   0  0  0  0  0  0  0  0  0  0  0  0
    4.3741    1.0308    1.0993 H   0  0  0  0  0  0  0  0  0  0  0  0
   -2.5913    0.4704    3.5502 H   0  0  0  0  0  0  0  0  0  0  0  0
   -0.9585    0.4329    4.2801 H   0  0  0  0  0  0  0  0  0  0  0  0
   -0.2423    4.0441    0.6705 H   0  0  0  0  0  0  0  0  0  0  0  0
   -0.8636    5.8988    2.1579 H   0  0  0  0  0  0  0  0  0  0  0  0
   -1.8582    5.4427    4.3604 H   0  0  0  0  0  0  0  0  0  0  0  0
   -2.2376    3.1190    5.0889 H   0  0  0  0  0  0  0  0  0  0  0  0
   -1.7103   -1.7911    2.2120 H   0  0  0  0  0  0  0  0  0  0  0  0
   -0.8585   -1.3591    0.7100 H   0  0  0  0  0  0  0  0  0  0  0  0
    1.2832   -1.2529    1.9551 H   0  0  0  0  0  0  0  0  0  0  0  0
    0.4314   -1.6850    3.4572 H   0  0  0  0  0  0  0  0  0  0  0  0
    1.6128   -2.8885    0.2460 H   0  0  0  0  0  0  0  0  0  0  0  0
    0.8013   -4.4688    0.3577 H   0  0  0  0  0  0  0  0  0  0  0  0
   -0.1551   -2.9956    0.0691 H   0  0  0  0  0  0  0  0  0  0  0  0
    1.4920   -3.7592    3.8359 H   0  0  0  0  0  0  0  0  0  0  0  0
    1.7348   -4.9016    2.4926 H   0  0  0  0  0  0  0  0  0  0  0  0
    2.6011   -3.3467    2.5062 H   0  0  0  0  0  0  0  0  0  0  0  0
    0.5339   -3.2363    2.0399 N   0  3  0  0  0  0  0  0  0  0  0  0
   -0.3347   -3.7036    2.3250 H   0  0  0  0  0  0  0  0  0  0  0  0
  1  2  1  0  0  0  0
  1 23  1  0  0  0  0
  1 24  1  0  0  0  0
  1 25  1  0  0  0  0
  2  3  1  6  0  0  0
  2  4  1  0  0  0  0
  2 10  1  0  0  0  0
  4  9  2  0  0  0  0
  4  5  1  0  0  0  0
  5  6  2  0  0  0  0
  5 26  1  0  0  0  0
  6  7  1  0  0  0  0
  6 27  1  0  0  0  0
  7  8  2  0  0  0  0
  7 28  1  0  0  0  0
  8  9  1  0  0  0  0
  8 29  1  0  0  0  0
 10 14  1  0  0  0  0
 10 11  2  0  0  0  0
 11 12  1  0  0  0  0
 11 19  1  0  0  0  0
 12 13  1  0  0  0  0
 12 30  1  0  0  0  0
 12 31  1  0  0  0  0
 13 18  2  0  0  0  0
 13 14  1  0  0  0  0
 14 15  2  0  0  0  0
 15 16  1  0  0  0  0
 15 32  1  0  0  0  0
 16 17  2  0  0  0  0
 16 33  1  0  0  0  0
 17 18  1  0  0  0  0
 17 34  1  0  0  0  0
 18 35  1  0  0  0  0
 19 20  1  0  0  0  0
 19 36  1  0  0  0  0
 19 37  1  0  0  0  0
 20 38  1  0  0  0  0
 20 39  1  0  0  0  0
 20 46  1  0  0  0  0
 21 40  1  0  0  0  0
 21 41  1  0  0  0  0
 21 42  1  0  0  0  0
 21 46  1  0  0  0  0
 22 43  1  0  0  0  0
 22 44  1  0  0  0  0
 22 45  1  0  0  0  0
 22 46  1  0  0  0  0
 46 47  1  0  0  0  0
M  CHG  1  46   1
M  END
$$$$
