ZINC00057313
 OpenBabel08292219463D

 41 43  0  0  1  0  0  0  0  0999 V2000
   -0.2527    1.6339   -0.0812 C   0  0  0  0  0  0  0  0  0  0  0  0
   -0.1845    0.1054   -0.0887 C   0  0  0  0  0  0  0  0  0  0  0  0
    0.6063   -0.3679    1.1036 C   0  0  0  0  0  0  0  0  0  0  0  0
    1.9531   -0.6303    0.9787 C   0  0  0  0  0  0  0  0  0  0  0  0
    2.6920   -1.0667    2.0695 C   0  0  0  0  0  0  0  0  0  0  0  0
    2.0960   -1.2437    3.2860 C   0  0  0  0  0  0  0  0  0  0  0  0
    0.7321   -0.9845    3.4374 C   0  0  0  0  0  0  0  0  0  0  0  0
   -0.0204   -0.5354    2.3332 C   0  0  0  0  0  0  0  0  0  0  0  0
   -1.3170   -0.3546    2.7667 N   0  0  0  0  0  0  0  0  0  0  0  0
   -2.0527   -0.0515    2.2119 H   0  0  0  0  0  0  0  0  0  0  0  0
   -1.4110   -0.6651    4.0907 C   0  0  0  0  0  0  0  0  0  0  0  0
   -0.2049   -1.0607    4.5495 C   0  0  0  0  0  0  0  0  0  0  0  0
    0.0459   -1.4743    5.9771 C   0  0  0  0  0  0  0  0  0  0  0  0
   -1.1544   -1.0117    6.8165 C   0  0  0  0  0  0  0  0  0  0  0  0
   -2.3681   -1.3816    6.1565 O   0  0  0  0  0  0  0  0  0  0  0  0
   -2.6397   -0.6140    4.9696 C   0  0  2  0  0  0  0  0  0  0  0  0
   -3.8273   -1.2383    4.2343 C   0  0  0  0  0  0  0  0  0  0  0  0
   -3.4642   -2.6570    3.7912 C   0  0  0  0  0  0  0  0  0  0  0  0
   -2.9585    0.8388    5.3281 C   0  0  0  0  0  0  0  0  0  0  0  0
   -4.1275    0.8768    6.2783 C   0  0  0  0  0  0  0  0  0  0  0  0
   -4.7023   -0.1554    6.5793 O   0  0  0  0  0  0  0  0  0  0  0  0
   -4.4985    1.9398    6.7462 O   0  0  0  0  0  1  0  0  0  0  0  0
    0.7565    2.0429   -0.1290 H   0  0  0  0  0  0  0  0  0  0  0  0
   -0.8247    1.9763   -0.9436 H   0  0  0  0  0  0  0  0  0  0  0  0
   -0.7386    1.9714    0.8342 H   0  0  0  0  0  0  0  0  0  0  0  0
   -1.1938   -0.3036   -0.0409 H   0  0  0  0  0  0  0  0  0  0  0  0
    0.3013   -0.2321   -1.0042 H   0  0  0  0  0  0  0  0  0  0  0  0
    2.4381   -0.4954    0.0232 H   0  0  0  0  0  0  0  0  0  0  0  0
    3.7468   -1.2684    1.9555 H   0  0  0  0  0  0  0  0  0  0  0  0
    2.6787   -1.5840    4.1292 H   0  0  0  0  0  0  0  0  0  0  0  0
    0.1419   -2.5585    6.0361 H   0  0  0  0  0  0  0  0  0  0  0  0
    0.9571   -1.0017    6.3439 H   0  0  0  0  0  0  0  0  0  0  0  0
   -1.1156   -1.4849    7.7977 H   0  0  0  0  0  0  0  0  0  0  0  0
   -1.1200    0.0714    6.9338 H   0  0  0  0  0  0  0  0  0  0  0  0
   -4.6888   -1.2752    4.9010 H   0  0  0  0  0  0  0  0  0  0  0  0
   -4.0705   -0.6354    3.3594 H   0  0  0  0  0  0  0  0  0  0  0  0
   -3.3044   -3.2823    4.6696 H   0  0  0  0  0  0  0  0  0  0  0  0
   -4.2771   -3.0703    3.1940 H   0  0  0  0  0  0  0  0  0  0  0  0
   -2.5526   -2.6291    3.1943 H   0  0  0  0  0  0  0  0  0  0  0  0
   -2.0897    1.2951    5.8025 H   0  0  0  0  0  0  0  0  0  0  0  0
   -3.2089    1.3901    4.4217 H   0  0  0  0  0  0  0  0  0  0  0  0
  1  2  1  0  0  0  0
  1 23  1  0  0  0  0
  1 24  1  0  0  0  0
  1 25  1  0  0  0  0
  2  3  1  0  0  0  0
  2 26  1  0  0  0  0
  2 27  1  0  0  0  0
  3  8  2  0  0  0  0
  3  4  1  0  0  0  0
  4  5  2  0  0  0  0
  4 28  1  0  0  0  0
  5  6  1  0  0  0  0
  5 29  1  0  0  0  0
  6  7  2  0  0  0  0
  6 30  1  0  0  0  0
  7 12  1  0  0  0  0
  7  8  1  0  0  0  0
  8  9  1  0  0  0  0
  9 10  1  0  0  0  0
  9 11  1  0  0  0  0
 11 16  1  0  0  0  0
 11 12  2  0  0  0  0
 12 13  1  0  0  0  0
 13 14  1  0  0  0  0
 13 31  1  0  0  0  0
 13 32  1  0  0  0  0
 14 15  1  0  0  0  0
 14 33  1  0  0  0  0
 14 34  1  0  0  0  0
 15 16  1  0  0  0  0
 16 17  1  6  0  0  0
 16 19  1  0  0  0  0
 17 18  1  0  0  0  0
 17 35  1  0  0  0  0
 17 36  1  0  0  0  0
 18 37  1  0  0  0  0
 18 38  1  0  0  0  0
 18 39  1  0  0  0  0
 19 20  1  0  0  0  0
 19 40  1  0  0  0  0
 19 41  1  0  0  0  0
 20 21  2  0  0  0  0
 20 22  1  0  0  0  0
M  END
$$$$
