ZINC00000083
 OpenBabel08292219463D

 28 27  0  0  1  0  0  0  0  0999 V2000
   -0.3948    1.6480    0.1225 C   0  0  0  0  0  0  0  0  0  0  0  0
   -0.2112    0.1296    0.0822 C   0  0  1  0  0  0  0  0  0  0  0  0
    0.2515   -0.2052    1.0105 H   0  0  0  0  0  0  0  0  0  0  0  0
   -1.5749   -0.5449   -0.0802 C   0  0  0  0  0  0  0  0  0  0  0  0
   -1.4134   -2.0025    0.0048 N   0  3  0  0  0  0  0  0  0  0  0  0
   -0.7204   -2.3464    1.2536 C   0  0  0  0  0  0  0  0  0  0  0  0
   -2.7350   -2.6435   -0.0143 C   0  0  0  0  0  0  0  0  0  0  0  0
   -0.6233   -2.4752   -1.1399 C   0  0  0  0  0  0  0  0  0  0  0  0
    0.6273   -0.2196   -1.0210 O   0  0  0  0  0  0  0  0  0  0  0  0
    1.9526   -0.2708   -0.7892 C   0  0  0  0  0  0  0  0  0  0  0  0
    2.3854   -0.0256    0.3194 O   0  0  0  0  0  0  0  0  0  0  0  0
    2.7992   -0.5939   -1.7869 N   0  0  0  0  0  0  0  0  0  0  0  0
    0.5767    2.1286    0.2382 H   0  0  0  0  0  0  0  0  0  0  0  0
   -0.8576    1.9829   -0.8058 H   0  0  0  0  0  0  0  0  0  0  0  0
   -1.0344    1.9144    0.9640 H   0  0  0  0  0  0  0  0  0  0  0  0
   -2.2440   -0.2067    0.7110 H   0  0  0  0  0  0  0  0  0  0  0  0
   -1.9970   -0.2820   -1.0501 H   0  0  0  0  0  0  0  0  0  0  0  0
   -1.3066   -1.9956    2.1029 H   0  0  0  0  0  0  0  0  0  0  0  0
   -0.6006   -3.4280    1.3166 H   0  0  0  0  0  0  0  0  0  0  0  0
    0.2603   -1.8708    1.2678 H   0  0  0  0  0  0  0  0  0  0  0  0
   -3.2492   -2.3883   -0.9409 H   0  0  0  0  0  0  0  0  0  0  0  0
   -2.6152   -3.7251    0.0487 H   0  0  0  0  0  0  0  0  0  0  0  0
   -3.3213   -2.2927    0.8350 H   0  0  0  0  0  0  0  0  0  0  0  0
    0.4164   -2.1734   -1.0131 H   0  0  0  0  0  0  0  0  0  0  0  0
   -0.6817   -3.5621   -1.1976 H   0  0  0  0  0  0  0  0  0  0  0  0
   -1.0184   -2.0408   -2.0582 H   0  0  0  0  0  0  0  0  0  0  0  0
    2.4537   -0.7896   -2.6719 H   0  0  0  0  0  0  0  0  0  0  0  0
    3.7540   -0.6308   -1.6199 H   0  0  0  0  0  0  0  0  0  0  0  0
  1  2  1  0  0  0  0
  1 13  1  0  0  0  0
  1 14  1  0  0  0  0
  1 15  1  0  0  0  0
  2  3  1  1  0  0  0
  2  4  1  0  0  0  0
  2  9  1  0  0  0  0
  4  5  1  0  0  0  0
  4 16  1  0  0  0  0
  4 17  1  0  0  0  0
  5  6  1  0  0  0  0
  5  7  1  0  0  0  0
  5  8  1  0  0  0  0
  6 18  1  0  0  0  0
  6 19  1  0  0  0  0
  6 20  1  0  0  0  0
  7 21  1  0  0  0  0
  7 22  1  0  0  0  0
  7 23  1  0  0  0  0
  8 24  1  0  0  0  0
  8 25  1  0  0  0  0
  8 26  1  0  0  0  0
  9 10  1  0  0  0  0
 10 11  2  0  0  0  0
 10 12  1  0  0  0  0
 12 27  1  0  0  0  0
 12 28  1  0  0  0  0
M  CHG  1   5   1
M  END
$$$$
