ZINC00002041
 OpenBabel08292219463D

 44 45  0  0  0  0  0  0  0  0999 V2000
    0.5749   -2.5904    2.3481 C   0  0  0  0  0  0  0  0  0  0  0  0
    0.1093   -2.1080    0.9728 C   0  0  0  0  0  0  0  0  0  0  0  0
    1.1277   -2.5311   -0.0878 C   0  0  0  0  0  0  0  0  0  0  0  0
    0.6808   -2.0679   -1.4082 N   0  3  0  0  0  0  0  0  0  0  0  0
    0.6775   -0.5992   -1.4367 C   0  0  0  0  0  0  0  0  0  0  0  0
    0.0613   -0.1159   -2.7511 C   0  0  0  0  0  0  0  0  0  0  0  0
    0.1111    1.4123   -2.8062 C   0  0  0  0  0  0  0  0  0  0  0  0
    1.5945   -2.5756   -2.4404 C   0  0  0  0  0  0  0  0  0  0  0  0
    1.5002   -4.1016   -2.4991 C   0  0  0  0  0  0  0  0  0  0  0  0
    2.3500   -4.6141   -3.6332 C   0  0  0  0  0  0  0  0  0  0  0  0
    1.7804   -4.8562   -4.8715 C   0  0  0  0  0  0  0  0  0  0  0  0
    2.5643   -5.3259   -5.9090 C   0  0  0  0  0  0  0  0  0  0  0  0
    3.9114   -5.5553   -5.7172 C   0  0  0  0  0  0  0  0  0  0  0  0
    4.4917   -5.3145   -4.4736 C   0  0  0  0  0  0  0  0  0  0  0  0
    3.6945   -4.8367   -3.4408 C   0  0  0  0  0  0  0  0  0  0  0  0
    4.6029   -4.6717   -2.2441 C   0  0  0  0  0  0  0  0  0  0  0  0
    5.9621   -5.1042   -2.7514 C   0  0  0  0  0  0  0  0  0  0  0  0
    6.9939   -5.1304   -2.1145 O   0  0  0  0  0  0  0  0  0  0  0  0
    5.8080   -5.4660   -4.0364 N   0  0  0  0  0  0  0  0  0  0  0  0
    0.6625   -3.6769    2.3415 H   0  0  0  0  0  0  0  0  0  0  0  0
    1.5445   -2.1491    2.5789 H   0  0  0  0  0  0  0  0  0  0  0  0
   -0.1506   -2.2890    3.1036 H   0  0  0  0  0  0  0  0  0  0  0  0
   -0.8602   -2.5493    0.7420 H   0  0  0  0  0  0  0  0  0  0  0  0
    0.0217   -1.0215    0.9793 H   0  0  0  0  0  0  0  0  0  0  0  0
    2.0973   -2.0897    0.1430 H   0  0  0  0  0  0  0  0  0  0  0  0
    1.2154   -3.6175   -0.0943 H   0  0  0  0  0  0  0  0  0  0  0  0
    0.0907   -0.2209   -0.5996 H   0  0  0  0  0  0  0  0  0  0  0  0
    1.7008   -0.2320   -1.3584 H   0  0  0  0  0  0  0  0  0  0  0  0
    0.6234   -0.5282   -3.5891 H   0  0  0  0  0  0  0  0  0  0  0  0
   -0.9751   -0.4480   -2.8103 H   0  0  0  0  0  0  0  0  0  0  0  0
   -0.3279    1.7566   -3.7426 H   0  0  0  0  0  0  0  0  0  0  0  0
   -0.4510    1.8246   -1.9682 H   0  0  0  0  0  0  0  0  0  0  0  0
    1.1476    1.7445   -2.7470 H   0  0  0  0  0  0  0  0  0  0  0  0
    1.3180   -2.1570   -3.4081 H   0  0  0  0  0  0  0  0  0  0  0  0
    2.6160   -2.2838   -2.1967 H   0  0  0  0  0  0  0  0  0  0  0  0
    1.8555   -4.5239   -1.5591 H   0  0  0  0  0  0  0  0  0  0  0  0
    0.4631   -4.3956   -2.6605 H   0  0  0  0  0  0  0  0  0  0  0  0
    0.7264   -4.6789   -5.0266 H   0  0  0  0  0  0  0  0  0  0  0  0
    2.1197   -5.5147   -6.8750 H   0  0  0  0  0  0  0  0  0  0  0  0
    4.5170   -5.9226   -6.5325 H   0  0  0  0  0  0  0  0  0  0  0  0
    4.6282   -3.6299   -1.9247 H   0  0  0  0  0  0  0  0  0  0  0  0
    4.2779   -5.3150   -1.4264 H   0  0  0  0  0  0  0  0  0  0  0  0
    6.5312   -5.7846   -4.5989 H   0  0  0  0  0  0  0  0  0  0  0  0
   -0.2516   -2.4098   -1.5867 H   0  0  0  0  0  0  0  0  0  0  0  0
  1  2  1  0  0  0  0
  1 20  1  0  0  0  0
  1 21  1  0  0  0  0
  1 22  1  0  0  0  0
  2  3  1  0  0  0  0
  2 23  1  0  0  0  0
  2 24  1  0  0  0  0
  3  4  1  0  0  0  0
  3 25  1  0  0  0  0
  3 26  1  0  0  0  0
  4  5  1  0  0  0  0
  4  8  1  0  0  0  0
  4 44  1  0  0  0  0
  5  6  1  0  0  0  0
  5 27  1  0  0  0  0
  5 28  1  0  0  0  0
  6  7  1  0  0  0  0
  6 29  1  0  0  0  0
  6 30  1  0  0  0  0
  7 31  1  0  0  0  0
  7 32  1  0  0  0  0
  7 33  1  0  0  0  0
  8  9  1  0  0  0  0
  8 34  1  0  0  0  0
  8 35  1  0  0  0  0
  9 10  1  0  0  0  0
  9 36  1  0  0  0  0
  9 37  1  0  0  0  0
 10 15  2  0  0  0  0
 10 11  1  0  0  0  0
 11 12  2  0  0  0  0
 11 38  1  0  0  0  0
 12 13  1  0  0  0  0
 12 39  1  0  0  0  0
 13 14  2  0  0  0  0
 13 40  1  0  0  0  0
 14 19  1  0  0  0  0
 14 15  1  0  0  0  0
 15 16  1  0  0  0  0
 16 17  1  0  0  0  0
 16 41  1  0  0  0  0
 16 42  1  0  0  0  0
 17 18  2  0  0  0  0
 17 19  1  0  0  0  0
 19 43  1  0  0  0  0
M  CHG  1   4   1
M  END
$$$$
