ZINC12484934
 OpenBabel08292219463D

 51 51  0  0  0  0  0  0  0  0999 V2000
   -0.4752    3.8474    2.3241 C   0  0  0  0  0  0  0  0  0  0  0  0
   -1.2912    2.5809    2.2874 C   0  0  0  0  0  0  0  0  0  0  0  0
   -0.7681    1.5194    1.6997 C   0  0  0  0  0  0  0  0  0  0  0  0
   -1.4726    0.1989    1.5848 C   0  0  0  0  0  0  0  0  0  0  0  0
   -2.6348    0.1339    2.5778 C   0  0  0  0  0  0  0  0  0  0  0  0
   -3.4768    1.4066    2.4264 C   0  0  0  0  0  0  0  0  0  0  0  0
   -2.6496    2.5951    2.9258 C   0  0  0  0  0  0  0  0  0  0  0  0
   -2.0110    0.0333    0.1623 C   0  0  0  0  0  0  0  0  0  0  0  0
   -0.4851   -0.9306    1.8851 C   0  0  0  0  0  0  0  0  0  0  0  0
    0.5726    1.6375    1.1297 C   0  0  0  0  0  0  0  0  0  0  0  0
    1.6294    1.9135    1.9336 C   0  0  0  0  0  0  0  0  0  0  0  0
    1.4278    2.1384    3.3103 C   0  0  0  0  0  0  0  0  0  0  0  0
    1.8456    3.3012    3.8776 C   0  0  0  0  0  0  0  0  0  0  0  0
    1.6439    3.5261    5.2543 C   0  0  0  0  0  0  0  0  0  0  0  0
    1.9976    4.7133    5.8065 C   0  0  0  0  0  0  0  0  0  0  0  0
    2.6369    5.7397    4.9853 C   0  0  0  0  0  0  0  0  0  0  0  0
    1.9973    6.8835    4.7286 C   0  0  0  0  0  0  0  0  0  0  0  0
    0.6704    7.1683    5.3837 C   0  0  0  0  0  0  0  0  0  0  0  0
    0.6940    8.4764    5.9585 O   0  0  0  0  0  0  0  0  0  0  0  0
    4.0177    5.5071    4.4284 C   0  0  0  0  0  0  0  0  0  0  0  0
    0.7490    1.0899    4.1536 C   0  0  0  0  0  0  0  0  0  0  0  0
   -0.7668    4.4916    1.4946 H   0  0  0  0  0  0  0  0  0  0  0  0
    0.5829    3.6005    2.2379 H   0  0  0  0  0  0  0  0  0  0  0  0
   -0.6517    4.3661    3.2664 H   0  0  0  0  0  0  0  0  0  0  0  0
   -3.2504   -0.7399    2.3643 H   0  0  0  0  0  0  0  0  0  0  0  0
   -2.2452    0.0679    3.5936 H   0  0  0  0  0  0  0  0  0  0  0  0
   -3.7365    1.5512    1.3777 H   0  0  0  0  0  0  0  0  0  0  0  0
   -4.3850    1.3178    3.0225 H   0  0  0  0  0  0  0  0  0  0  0  0
   -2.5406    2.5343    4.0086 H   0  0  0  0  0  0  0  0  0  0  0  0
   -3.1605    3.5227    2.6676 H   0  0  0  0  0  0  0  0  0  0  0  0
   -1.1937    0.1429   -0.5506 H   0  0  0  0  0  0  0  0  0  0  0  0
   -2.4563   -0.9558    0.0551 H   0  0  0  0  0  0  0  0  0  0  0  0
   -2.7665    0.7949   -0.0312 H   0  0  0  0  0  0  0  0  0  0  0  0
   -0.2917   -0.9687    2.9571 H   0  0  0  0  0  0  0  0  0  0  0  0
   -0.9090   -1.8802    1.5584 H   0  0  0  0  0  0  0  0  0  0  0  0
    0.4488   -0.7476    1.3536 H   0  0  0  0  0  0  0  0  0  0  0  0
    0.7217    1.5049    0.0682 H   0  0  0  0  0  0  0  0  0  0  0  0
    2.6255    1.9611    1.5189 H   0  0  0  0  0  0  0  0  0  0  0  0
    2.3320    4.0526    3.2733 H   0  0  0  0  0  0  0  0  0  0  0  0
    1.2078    2.7530    5.8695 H   0  0  0  0  0  0  0  0  0  0  0  0
    1.8068    4.9004    6.8529 H   0  0  0  0  0  0  0  0  0  0  0  0
    2.4310    7.6044    4.0514 H   0  0  0  0  0  0  0  0  0  0  0  0
   -0.1224    7.1136    4.6377 H   0  0  0  0  0  0  0  0  0  0  0  0
    0.4854    6.4314    6.1652 H   0  0  0  0  0  0  0  0  0  0  0  0
   -0.1297    8.7277    6.3985 H   0  0  0  0  0  0  0  0  0  0  0  0
    3.9429    4.9631    3.4868 H   0  0  0  0  0  0  0  0  0  0  0  0
    4.5063    6.4661    4.2561 H   0  0  0  0  0  0  0  0  0  0  0  0
    4.6028    4.9239    5.1395 H   0  0  0  0  0  0  0  0  0  0  0  0
    1.4934    0.3873    4.5284 H   0  0  0  0  0  0  0  0  0  0  0  0
    0.2460    1.5689    4.9936 H   0  0  0  0  0  0  0  0  0  0  0  0
    0.0168    0.5551    3.5486 H   0  0  0  0  0  0  0  0  0  0  0  0
  1  2  1  0  0  0  0
  1 22  1  0  0  0  0
  1 23  1  0  0  0  0
  1 24  1  0  0  0  0
  2  7  1  0  0  0  0
  2  3  2  0  0  0  0
  3  4  1  0  0  0  0
  3 10  1  0  0  0  0
  4  5  1  0  0  0  0
  4  8  1  0  0  0  0
  4  9  1  0  0  0  0
  5  6  1  0  0  0  0
  5 25  1  0  0  0  0
  5 26  1  0  0  0  0
  6  7  1  0  0  0  0
  6 27  1  0  0  0  0
  6 28  1  0  0  0  0
  7 29  1  0  0  0  0
  7 30  1  0  0  0  0
  8 31  1  0  0  0  0
  8 32  1  0  0  0  0
  8 33  1  0  0  0  0
  9 34  1  0  0  0  0
  9 35  1  0  0  0  0
  9 36  1  0  0  0  0
 10 11  2  0  0  0  0
 10 37  1  0  0  0  0
 11 12  1  0  0  0  0
 11 38  1  0  0  0  0
 12 13  2  0  0  0  0
 12 21  1  0  0  0  0
 13 14  1  0  0  0  0
 13 39  1  0  0  0  0
 14 15  2  0  0  0  0
 14 40  1  0  0  0  0
 15 16  1  0  0  0  0
 15 41  1  0  0  0  0
 16 17  2  0  0  0  0
 16 20  1  0  0  0  0
 17 18  1  0  0  0  0
 17 42  1  0  0  0  0
 18 19  1  0  0  0  0
 18 43  1  0  0  0  0
 18 44  1  0  0  0  0
 19 45  1  0  0  0  0
 20 46  1  0  0  0  0
 20 47  1  0  0  0  0
 20 48  1  0  0  0  0
 21 49  1  0  0  0  0
 21 50  1  0  0  0  0
 21 51  1  0  0  0  0
M  END
$$$$
