ZINC01530967
 OpenBabel08292219463D

 58 59  0  0  1  0  0  0  0  0999 V2000
   -2.0020    0.5958    2.9079 C   0  0  0  0  0  0  0  0  0  0  0  0
   -1.8866   -0.7653    2.2187 C   0  0  0  0  0  0  0  0  0  0  0  0
   -1.3204   -0.5773    0.8098 C   0  0  1  0  0  0  0  0  0  0  0  0
   -0.3567   -0.0715    0.8700 H   0  0  0  0  0  0  0  0  0  0  0  0
   -1.1386   -1.9440    0.1466 C   0  0  0  0  0  0  0  0  0  0  0  0
   -0.1932   -2.7995    0.9924 C   0  0  0  0  0  0  0  0  0  0  0  0
    1.2091   -2.1882    0.9659 C   0  0  2  0  0  0  0  0  0  0  0  0
    1.5214   -2.0402   -0.0678 H   0  0  0  0  0  0  0  0  0  0  0  0
    2.1900   -3.1317    1.6649 C   0  0  0  0  0  0  0  0  0  0  0  0
    1.1293   -1.0819    3.1182 C   0  0  0  0  0  0  0  0  0  0  0  0
    2.3556   -0.0799    1.2866 C   0  0  0  0  0  0  0  0  0  0  0  0
   -2.4754   -2.6311    0.0371 C   0  0  0  0  0  0  0  0  0  0  0  0
   -3.6358   -1.9336    0.3158 C   0  0  0  0  0  0  0  0  0  0  0  0
   -4.8624   -2.5625    0.2106 C   0  0  0  0  0  0  0  0  0  0  0  0
   -4.9277   -3.8917   -0.1631 C   0  0  0  0  0  0  0  0  0  0  0  0
   -3.7669   -4.5907   -0.4367 C   0  0  0  0  0  0  0  0  0  0  0  0
   -2.5407   -3.9603   -0.3366 C   0  0  0  0  0  0  0  0  0  0  0  0
   -0.5538   -1.7605   -1.2301 C   0  0  0  0  0  0  0  0  0  0  0  0
   -0.2827   -2.8631   -2.0185 C   0  0  0  0  0  0  0  0  0  0  0  0
    0.2492   -2.6946   -3.2832 C   0  0  0  0  0  0  0  0  0  0  0  0
    0.5198   -1.4239   -3.7555 C   0  0  0  0  0  0  0  0  0  0  0  0
    0.2536   -0.3215   -2.9651 C   0  0  0  0  0  0  0  0  0  0  0  0
   -0.2832   -0.4898   -1.7024 C   0  0  0  0  0  0  0  0  0  0  0  0
   -2.2395    0.2246    0.0219 O   0  0  0  0  0  0  0  0  0  0  0  0
   -2.0647    1.5552    0.0492 C   0  0  0  0  0  0  0  0  0  0  0  0
   -1.1733    2.0340    0.7095 O   0  0  0  0  0  0  0  0  0  0  0  0
   -2.9803    2.4518   -0.7438 C   0  0  0  0  0  0  0  0  0  0  0  0
   -2.4053    0.4618    3.9116 H   0  0  0  0  0  0  0  0  0  0  0  0
   -1.0158    1.0558    2.9710 H   0  0  0  0  0  0  0  0  0  0  0  0
   -2.6669    1.2394    2.3320 H   0  0  0  0  0  0  0  0  0  0  0  0
   -1.2216   -1.4089    2.7946 H   0  0  0  0  0  0  0  0  0  0  0  0
   -2.8728   -1.2253    2.1556 H   0  0  0  0  0  0  0  0  0  0  0  0
   -0.5554   -2.8336    2.0199 H   0  0  0  0  0  0  0  0  0  0  0  0
   -0.1567   -3.8104    0.5863 H   0  0  0  0  0  0  0  0  0  0  0  0
    1.8777   -3.2797    2.6987 H   0  0  0  0  0  0  0  0  0  0  0  0
    2.2021   -4.0913    1.1480 H   0  0  0  0  0  0  0  0  0  0  0  0
    3.1890   -2.6962    1.6460 H   0  0  0  0  0  0  0  0  0  0  0  0
    2.0643   -1.5183    3.4696 H   0  0  0  0  0  0  0  0  0  0  0  0
    0.9741   -0.1175    3.6019 H   0  0  0  0  0  0  0  0  0  0  0  0
    0.3025   -1.7485    3.3632 H   0  0  0  0  0  0  0  0  0  0  0  0
    2.3399    0.1018    0.2120 H   0  0  0  0  0  0  0  0  0  0  0  0
    2.3187    0.8719    1.8166 H   0  0  0  0  0  0  0  0  0  0  0  0
    3.2711   -0.6085    1.5524 H   0  0  0  0  0  0  0  0  0  0  0  0
   -3.5845   -0.8963    0.6121 H   0  0  0  0  0  0  0  0  0  0  0  0
   -5.7693   -2.0165    0.4248 H   0  0  0  0  0  0  0  0  0  0  0  0
   -5.8857   -4.3843   -0.2409 H   0  0  0  0  0  0  0  0  0  0  0  0
   -3.8179   -5.6293   -0.7283 H   0  0  0  0  0  0  0  0  0  0  0  0
   -1.6338   -4.5065   -0.5500 H   0  0  0  0  0  0  0  0  0  0  0  0
   -0.4900   -3.8561   -1.6478 H   0  0  0  0  0  0  0  0  0  0  0  0
    0.4575   -3.5558   -3.9007 H   0  0  0  0  0  0  0  0  0  0  0  0
    0.9395   -1.2924   -4.7419 H   0  0  0  0  0  0  0  0  0  0  0  0
    0.4653    0.6712   -3.3339 H   0  0  0  0  0  0  0  0  0  0  0  0
   -0.4908    0.3714   -1.0847 H   0  0  0  0  0  0  0  0  0  0  0  0
   -3.7160    1.8447   -1.2713 H   0  0  0  0  0  0  0  0  0  0  0  0
   -3.4920    3.1373   -0.0684 H   0  0  0  0  0  0  0  0  0  0  0  0
   -2.3950    3.0219   -1.4654 H   0  0  0  0  0  0  0  0  0  0  0  0
    1.1691   -0.8809    1.6544 N   0  3  0  0  0  0  0  0  0  0  0  0
    0.3232   -0.3767    1.3638 H   0  0  0  0  0  0  0  0  0  0  0  0
  1  2  1  0  0  0  0
  1 28  1  0  0  0  0
  1 29  1  0  0  0  0
  1 30  1  0  0  0  0
  2  3  1  0  0  0  0
  2 31  1  0  0  0  0
  2 32  1  0  0  0  0
  3  4  1  1  0  0  0
  3  5  1  0  0  0  0
  3 24  1  0  0  0  0
  5  6  1  0  0  0  0
  5 12  1  0  0  0  0
  5 18  1  0  0  0  0
  6  7  1  0  0  0  0
  6 33  1  0  0  0  0
  6 34  1  0  0  0  0
  7  8  1  6  0  0  0
  7  9  1  0  0  0  0
  7 57  1  0  0  0  0
  9 35  1  0  0  0  0
  9 36  1  0  0  0  0
  9 37  1  0  0  0  0
 10 38  1  0  0  0  0
 10 39  1  0  0  0  0
 10 40  1  0  0  0  0
 10 57  1  0  0  0  0
 11 41  1  0  0  0  0
 11 42  1  0  0  0  0
 11 43  1  0  0  0  0
 11 57  1  0  0  0  0
 12 17  2  0  0  0  0
 12 13  1  0  0  0  0
 13 14  2  0  0  0  0
 13 44  1  0  0  0  0
 14 15  1  0  0  0  0
 14 45  1  0  0  0  0
 15 16  2  0  0  0  0
 15 46  1  0  0  0  0
 16 17  1  0  0  0  0
 16 47  1  0  0  0  0
 17 48  1  0  0  0  0
 18 23  2  0  0  0  0
 18 19  1  0  0  0  0
 19 20  2  0  0  0  0
 19 49  1  0  0  0  0
 20 21  1  0  0  0  0
 20 50  1  0  0  0  0
 21 22  2  0  0  0  0
 21 51  1  0  0  0  0
 22 23  1  0  0  0  0
 22 52  1  0  0  0  0
 23 53  1  0  0  0  0
 24 25  1  0  0  0  0
 25 26  2  0  0  0  0
 25 27  1  0  0  0  0
 27 54  1  0  0  0  0
 27 55  1  0  0  0  0
 27 56  1  0  0  0  0
 57 58  1  0  0  0  0
M  CHG  1  57   1
M  END
$$$$
