ZINC38140873
 OpenBabel08292219463D

 33 34  0  0  1  0  0  0  0  0999 V2000
   -0.0820    1.2566   -0.1597 C   0  0  0  0  0  0  0  0  0  0  0  0
    0.1299   -0.2584   -0.1357 C   0  0  1  0  0  0  0  0  0  0  0  0
    1.1088   -0.6885   -1.2706 C   0  0  2  0  0  0  0  0  0  0  0  0
    0.9713   -0.1930   -2.2316 H   0  0  0  0  0  0  0  0  0  0  0  0
    1.0260   -2.2454   -1.2884 C   0  0  0  0  0  0  0  0  0  0  0  0
    1.7232   -2.6889    0.0180 C   0  0  0  0  0  0  0  0  0  0  0  0
    2.1617   -1.3581    0.7021 C   0  0  1  0  0  0  0  0  0  0  0  0
    2.9507   -1.4439    1.4493 H   0  0  0  0  0  0  0  0  0  0  0  0
    2.4912   -0.4592   -0.5636 C   0  0  0  0  0  0  0  0  0  0  0  0
    0.8366   -0.6831    1.1718 C   0  0  0  0  0  0  0  0  0  0  0  0
   -0.0129   -1.7053    1.9297 C   0  0  0  0  0  0  0  0  0  0  0  0
    1.1126    0.5389    2.0502 C   0  0  0  0  0  0  0  0  0  0  0  0
   -1.1554   -0.9564   -0.2730 N   0  0  0  0  0  0  0  0  0  0  0  0
   -1.7845   -0.6516   -1.5651 C   0  0  0  0  0  0  0  0  0  0  0  0
    0.8832    1.7594   -0.0985 H   0  0  0  0  0  0  0  0  0  0  0  0
   -0.5807    1.5391   -1.0868 H   0  0  0  0  0  0  0  0  0  0  0  0
   -0.6993    1.5507    0.6891 H   0  0  0  0  0  0  0  0  0  0  0  0
   -0.0144   -2.5706   -1.2931 H   0  0  0  0  0  0  0  0  0  0  0  0
    1.5535   -2.6441   -2.1549 H   0  0  0  0  0  0  0  0  0  0  0  0
    1.0256   -3.2321    0.6555 H   0  0  0  0  0  0  0  0  0  0  0  0
    2.5935   -3.3056   -0.2062 H   0  0  0  0  0  0  0  0  0  0  0  0
    3.3195   -0.8663   -1.1435 H   0  0  0  0  0  0  0  0  0  0  0  0
    2.6519    0.5887   -0.3101 H   0  0  0  0  0  0  0  0  0  0  0  0
   -0.2810   -2.5226    1.2602 H   0  0  0  0  0  0  0  0  0  0  0  0
    0.5564   -2.0977    2.7723 H   0  0  0  0  0  0  0  0  0  0  0  0
   -0.9194   -1.2238    2.2964 H   0  0  0  0  0  0  0  0  0  0  0  0
    0.1706    1.0280    2.2985 H   0  0  0  0  0  0  0  0  0  0  0  0
    1.6105    0.2226    2.9668 H   0  0  0  0  0  0  0  0  0  0  0  0
    1.7531    1.2367    1.5109 H   0  0  0  0  0  0  0  0  0  0  0  0
   -1.0412   -1.9516   -0.1523 H   0  0  0  0  0  0  0  0  0  0  0  0
   -1.9599    0.4216   -1.6396 H   0  0  0  0  0  0  0  0  0  0  0  0
   -1.1262   -0.9692   -2.3736 H   0  0  0  0  0  0  0  0  0  0  0  0
   -2.7343   -1.1811   -1.6406 H   0  0  0  0  0  0  0  0  0  0  0  0
  1 15  1  0  0  0  0
  1 16  1  0  0  0  0
  1 17  1  0  0  0  0
  2  1  1  6  0  0  0
  2 10  1  0  0  0  0
  2  3  1  0  0  0  0
  2 13  1  0  0  0  0
  3  4  1  6  0  0  0
  3  9  1  0  0  0  0
  3  5  1  0  0  0  0
  5  6  1  0  0  0  0
  5 18  1  0  0  0  0
  5 19  1  0  0  0  0
  6  7  1  0  0  0  0
  6 20  1  0  0  0  0
  6 21  1  0  0  0  0
  7  8  1  1  0  0  0
  7  9  1  0  0  0  0
  7 10  1  0  0  0  0
  9 22  1  0  0  0  0
  9 23  1  0  0  0  0
 10 11  1  0  0  0  0
 10 12  1  0  0  0  0
 11 24  1  0  0  0  0
 11 25  1  0  0  0  0
 11 26  1  0  0  0  0
 12 27  1  0  0  0  0
 12 28  1  0  0  0  0
 12 29  1  0  0  0  0
 13 14  1  0  0  0  0
 13 30  1  0  0  0  0
 14 31  1  0  0  0  0
 14 32  1  0  0  0  0
 14 33  1  0  0  0  0
M  END
$$$$
