ZINC00897256
 OpenBabel08292219463D

 50 51  0  0  1  0  0  0  0  0999 V2000
   -0.0219    1.5813    0.0286 C   0  0  0  0  0  0  0  0  0  0  0  0
    0.0109    0.0517    0.0226 C   0  0  1  0  0  0  0  0  0  0  0  0
    0.5262   -0.2972   -0.8723 H   0  0  0  0  0  0  0  0  0  0  0  0
    0.7515   -0.4474    1.2648 C   0  0  0  0  0  0  0  0  0  0  0  0
    0.8914   -1.9464    1.1978 C   0  0  0  0  0  0  0  0  0  0  0  0
   -0.0920   -2.7561    1.7356 C   0  0  0  0  0  0  0  0  0  0  0  0
    0.0341   -4.1305    1.6758 C   0  0  0  0  0  0  0  0  0  0  0  0
    1.1484   -4.6982    1.0753 C   0  0  0  0  0  0  0  0  0  0  0  0
    2.1335   -3.8836    0.5361 C   0  0  0  0  0  0  0  0  0  0  0  0
    2.0002   -2.5098    0.5937 C   0  0  0  0  0  0  0  0  0  0  0  0
    1.2749   -6.0500    1.0156 O   0  0  0  0  0  0  0  0  0  0  0  0
    2.4483   -6.5644    0.3827 C   0  0  0  0  0  0  0  0  0  0  0  0
   -1.3633   -0.4676    0.0301 N   0  3  0  0  0  0  0  0  0  0  0  0
   -2.0369   -0.0884   -1.2190 C   0  0  0  0  0  0  0  0  0  0  0  0
   -3.4681   -0.6292   -1.2112 C   0  0  1  0  0  0  0  0  0  0  0  0
   -4.0105   -0.2094   -0.3640 H   0  0  0  0  0  0  0  0  0  0  0  0
   -4.1592   -0.2402   -2.4926 C   0  0  0  0  0  0  0  0  0  0  0  0
   -4.0143   -1.0269   -3.6206 C   0  0  0  0  0  0  0  0  0  0  0  0
   -4.6454   -0.6749   -4.7991 C   0  0  0  0  0  0  0  0  0  0  0  0
   -5.4257    0.4688   -4.8526 C   0  0  0  0  0  0  0  0  0  0  0  0
   -5.5725    1.2614   -3.7166 C   0  0  0  0  0  0  0  0  0  0  0  0
   -4.9406    0.8987   -2.5360 C   0  0  0  0  0  0  0  0  0  0  0  0
   -6.3604    2.4191   -3.7648 N   0  0  0  0  0  0  0  0  0  0  0  0
   -7.0789    2.7906   -2.6867 C   0  0  0  0  0  0  0  0  0  0  0  0
   -6.9814    2.1694   -1.6495 O   0  0  0  0  0  0  0  0  0  0  0  0
   -6.0464    0.8168   -6.0113 O   0  0  0  0  0  0  0  0  0  0  0  0
   -3.4385   -2.0535   -1.0993 O   0  0  0  0  0  0  0  0  0  0  0  0
    0.9977    1.9666    0.0230 H   0  0  0  0  0  0  0  0  0  0  0  0
   -0.5496    1.9369   -0.8564 H   0  0  0  0  0  0  0  0  0  0  0  0
   -0.5372    1.9302    0.9235 H   0  0  0  0  0  0  0  0  0  0  0  0
    1.7408    0.0083    1.3056 H   0  0  0  0  0  0  0  0  0  0  0  0
    0.1887   -0.1746    2.1575 H   0  0  0  0  0  0  0  0  0  0  0  0
   -0.9593   -2.3136    2.2030 H   0  0  0  0  0  0  0  0  0  0  0  0
   -0.7340   -4.7624    2.0966 H   0  0  0  0  0  0  0  0  0  0  0  0
    3.0019   -4.3232    0.0680 H   0  0  0  0  0  0  0  0  0  0  0  0
    2.7646   -1.8753    0.1702 H   0  0  0  0  0  0  0  0  0  0  0  0
    2.4241   -7.6539    0.4031 H   0  0  0  0  0  0  0  0  0  0  0  0
    2.4836   -6.2211   -0.6512 H   0  0  0  0  0  0  0  0  0  0  0  0
    3.3322   -6.2106    0.9134 H   0  0  0  0  0  0  0  0  0  0  0  0
   -1.3424   -1.4733    0.1091 H   0  0  0  0  0  0  0  0  0  0  0  0
   -2.0595    0.9980   -1.3043 H   0  0  0  0  0  0  0  0  0  0  0  0
   -1.4945   -0.5082   -2.0662 H   0  0  0  0  0  0  0  0  0  0  0  0
   -3.4062   -1.9185   -3.5808 H   0  0  0  0  0  0  0  0  0  0  0  0
   -4.5299   -1.2913   -5.6784 H   0  0  0  0  0  0  0  0  0  0  0  0
   -5.0559    1.5087   -1.6523 H   0  0  0  0  0  0  0  0  0  0  0  0
   -6.3887    2.9532   -4.5740 H   0  0  0  0  0  0  0  0  0  0  0  0
   -7.7414    3.6414   -2.7464 H   0  0  0  0  0  0  0  0  0  0  0  0
   -6.9339    0.4455   -6.1090 H   0  0  0  0  0  0  0  0  0  0  0  0
   -2.9706   -2.4951   -1.8212 H   0  0  0  0  0  0  0  0  0  0  0  0
   -1.8654   -0.0790    0.8144 H   0  0  0  0  0  0  0  0  0  0  0  0
  1  2  1  0  0  0  0
  1 28  1  0  0  0  0
  1 29  1  0  0  0  0
  1 30  1  0  0  0  0
  2  3  1  6  0  0  0
  2  4  1  0  0  0  0
  2 13  1  0  0  0  0
  4  5  1  0  0  0  0
  4 31  1  0  0  0  0
  4 32  1  0  0  0  0
  5 10  2  0  0  0  0
  5  6  1  0  0  0  0
  6  7  2  0  0  0  0
  6 33  1  0  0  0  0
  7  8  1  0  0  0  0
  7 34  1  0  0  0  0
  8  9  2  0  0  0  0
  8 11  1  0  0  0  0
  9 10  1  0  0  0  0
  9 35  1  0  0  0  0
 10 36  1  0  0  0  0
 11 12  1  0  0  0  0
 12 37  1  0  0  0  0
 12 38  1  0  0  0  0
 12 39  1  0  0  0  0
 13 14  1  0  0  0  0
 13 40  1  0  0  0  0
 13 50  1  0  0  0  0
 14 15  1  0  0  0  0
 14 41  1  0  0  0  0
 14 42  1  0  0  0  0
 15 16  1  1  0  0  0
 15 17  1  0  0  0  0
 15 27  1  0  0  0  0
 17 22  2  0  0  0  0
 17 18  1  0  0  0  0
 18 19  2  0  0  0  0
 18 43  1  0  0  0  0
 19 20  1  0  0  0  0
 19 44  1  0  0  0  0
 20 21  2  0  0  0  0
 20 26  1  0  0  0  0
 21 22  1  0  0  0  0
 21 23  1  0  0  0  0
 22 45  1  0  0  0  0
 23 24  1  0  0  0  0
 23 46  1  0  0  0  0
 24 25  2  0  0  0  0
 24 47  1  0  0  0  0
 26 48  1  0  0  0  0
 27 49  1  0  0  0  0
M  CHG  1  13   1
M  END
$$$$
