ZINC08214590
 OpenBabel08292219463D

 73 75  0  0  1  0  0  0  0  0999 V2000
    0.9561    1.3662    0.7939 C   0  0  0  0  0  0  0  0  0  0  0  0
    2.3614    1.9035    0.5159 C   0  0  2  0  0  0  0  0  0  0  0  0
    2.4394    2.1916   -0.5324 H   0  0  0  0  0  0  0  0  0  0  0  0
    3.3932    0.8167    0.8243 C   0  0  1  0  0  0  0  0  0  0  0  0
    3.3152    0.5286    1.8726 H   0  0  0  0  0  0  0  0  0  0  0  0
    3.1292   -0.4031   -0.0608 C   0  0  2  0  0  0  0  0  0  0  0  0
    3.2072   -0.1150   -1.1091 H   0  0  0  0  0  0  0  0  0  0  0  0
    1.7239   -0.9404    0.2173 C   0  0  1  0  0  0  0  0  0  0  0  0
    1.6459   -1.2285    1.2656 H   0  0  0  0  0  0  0  0  0  0  0  0
    0.6921    0.1464   -0.0911 C   0  0  1  0  0  0  0  0  0  0  0  0
    0.7701    0.4345   -1.1395 H   0  0  0  0  0  0  0  0  0  0  0  0
   -0.6572   -0.3695    0.1758 N   0  3  0  0  0  0  0  0  0  0  0  0
    1.4773   -2.0797   -0.6094 O   0  0  0  0  0  0  0  0  0  0  0  0
    1.9214   -3.3148   -0.0444 C   0  0  2  0  0  0  0  0  0  0  0  0
    2.8769   -3.1622    0.4575 H   0  0  0  0  0  0  0  0  0  0  0  0
    2.0889   -4.3538   -1.1562 C   0  0  1  0  0  0  0  0  0  0  0  0
    2.4663   -5.2841   -0.7316 H   0  0  0  0  0  0  0  0  0  0  0  0
    0.7303   -4.6068   -1.8169 C   0  0  2  0  0  0  0  0  0  0  0  0
    0.3756   -3.6883   -2.2846 H   0  0  0  0  0  0  0  0  0  0  0  0
   -0.2695   -5.0562   -0.7470 C   0  0  1  0  0  0  0  0  0  0  0  0
    0.0602   -6.0007   -0.3141 H   0  0  0  0  0  0  0  0  0  0  0  0
   -0.3459   -3.9901    0.3490 C   0  0  2  0  0  0  0  0  0  0  0  0
   -0.7144   -3.0568   -0.0768 H   0  0  0  0  0  0  0  0  0  0  0  0
    0.9560   -3.7811    0.9003 O   0  0  0  0  0  0  0  0  0  0  0  0
   -1.2978   -4.4588    1.4513 C   0  0  0  0  0  0  0  0  0  0  0  0
   -1.4642   -3.3877    2.4427 N   0  3  0  0  0  0  0  0  0  0  0  0
   -1.5586   -5.2268   -1.3397 O   0  0  0  0  0  0  0  0  0  0  0  0
    0.8634   -5.6274   -2.8082 O   0  0  0  0  0  0  0  0  0  0  0  0
    3.0120   -3.8650   -2.1315 O   0  0  0  0  0  0  0  0  0  0  0  0
    4.0929   -1.4182    0.2272 O   0  0  0  0  0  0  0  0  0  0  0  0
    4.7058    1.3185    0.5646 O   0  0  0  0  0  0  0  0  0  0  0  0
    5.4284    1.6917    1.7396 C   0  0  2  0  0  0  0  0  0  0  0  0
    4.7679    2.2353    2.4152 H   0  0  0  0  0  0  0  0  0  0  0  0
    6.6088    2.5855    1.3507 C   0  0  1  0  0  0  0  0  0  0  0  0
    7.1366    2.9036    2.2498 H   0  0  0  0  0  0  0  0  0  0  0  0
    7.5627    1.7950    0.4498 C   0  0  2  0  0  0  0  0  0  0  0  0
    7.0496    1.5193   -0.4715 H   0  0  0  0  0  0  0  0  0  0  0  0
    8.0103    0.5284    1.1858 C   0  0  1  0  0  0  0  0  0  0  0  0
    8.5664    0.8049    2.0816 H   0  0  0  0  0  0  0  0  0  0  0  0
    6.7757   -0.2860    1.5811 C   0  0  2  0  0  0  0  0  0  0  0  0
    6.2422   -0.5965    0.6828 H   0  0  0  0  0  0  0  0  0  0  0  0
    5.9160    0.5176    2.3922 O   0  0  0  0  0  0  0  0  0  0  0  0
    7.2113   -1.5230    2.3691 C   0  0  0  0  0  0  0  0  0  0  0  0
    6.0730   -2.3464    2.6306 O   0  0  0  0  0  0  0  0  0  0  0  0
    8.8446   -0.2528    0.3280 O   0  0  0  0  0  0  0  0  0  0  0  0
    8.7352    2.6206    0.1312 N   0  3  0  0  0  0  0  0  0  0  0  0
    6.1277    3.7331    0.6482 O   0  0  0  0  0  0  0  0  0  0  0  0
    2.6149    3.0746    1.3657 N   0  3  0  0  0  0  0  0  0  0  0  0
    0.8781    1.0781    1.8423 H   0  0  0  0  0  0  0  0  0  0  0  0
    0.2210    2.1404    0.5742 H   0  0  0  0  0  0  0  0  0  0  0  0
   -1.3376    0.3473   -0.0276 H   0  0  0  0  0  0  0  0  0  0  0  0
   -0.8313   -1.1739   -0.4079 H   0  0  0  0  0  0  0  0  0  0  0  0
   -2.2663   -4.7038    1.0151 H   0  0  0  0  0  0  0  0  0  0  0  0
   -0.8841   -5.3425    1.9371 H   0  0  0  0  0  0  0  0  0  0  0  0
   -2.0919   -3.6968    3.1697 H   0  0  0  0  0  0  0  0  0  0  0  0
   -0.5677   -3.1609    2.8465 H   0  0  0  0  0  0  0  0  0  0  0  0
   -1.5823   -5.8861   -2.0467 H   0  0  0  0  0  0  0  0  0  0  0  0
    1.4875   -5.4108   -3.5144 H   0  0  0  0  0  0  0  0  0  0  0  0
    3.8935   -3.6790   -1.7803 H   0  0  0  0  0  0  0  0  0  0  0  0
    4.0936   -2.1504   -0.4043 H   0  0  0  0  0  0  0  0  0  0  0  0
    7.9411   -2.0861    1.7873 H   0  0  0  0  0  0  0  0  0  0  0  0
    7.6601   -1.2132    3.3129 H   0  0  0  0  0  0  0  0  0  0  0  0
    6.2753   -3.1506    3.1280 H   0  0  0  0  0  0  0  0  0  0  0  0
    9.1652   -1.0716    0.7302 H   0  0  0  0  0  0  0  0  0  0  0  0
    9.2109    2.8728    0.9845 H   0  0  0  0  0  0  0  0  0  0  0  0
    9.3627    2.0989   -0.4622 H   0  0  0  0  0  0  0  0  0  0  0  0
    5.5138    4.2783    1.1591 H   0  0  0  0  0  0  0  0  0  0  0  0
    2.5427    2.8079    2.3361 H   0  0  0  0  0  0  0  0  0  0  0  0
    3.5417    3.4289    1.1823 H   0  0  0  0  0  0  0  0  0  0  0  0
   -1.8472   -2.5697    1.9931 H   0  0  0  0  0  0  0  0  0  0  0  0
    1.9344    3.7913    1.1623 H   0  0  0  0  0  0  0  0  0  0  0  0
   -0.7294   -0.6361    1.1463 H   0  0  0  0  0  0  0  0  0  0  0  0
    8.4373    3.4573   -0.3476 H   0  0  0  0  0  0  0  0  0  0  0  0
  1 10  1  0  0  0  0
  1  2  1  0  0  0  0
  1 49  1  0  0  0  0
  1 50  1  0  0  0  0
  2  3  1  6  0  0  0
  2  4  1  0  0  0  0
  2 48  1  0  0  0  0
  4  5  1  1  0  0  0
  4  6  1  0  0  0  0
  4 31  1  0  0  0  0
  6  7  1  6  0  0  0
  6  8  1  0  0  0  0
  6 30  1  0  0  0  0
  8  9  1  1  0  0  0
  8 10  1  0  0  0  0
  8 13  1  0  0  0  0
 10 11  1  6  0  0  0
 10 12  1  0  0  0  0
 12 51  1  0  0  0  0
 12 52  1  0  0  0  0
 12 72  1  0  0  0  0
 13 14  1  0  0  0  0
 14 15  1  1  0  0  0
 14 24  1  0  0  0  0
 14 16  1  0  0  0  0
 16 17  1  1  0  0  0
 16 18  1  0  0  0  0
 16 29  1  0  0  0  0
 18 19  1  6  0  0  0
 18 20  1  0  0  0  0
 18 28  1  0  0  0  0
 20 21  1  1  0  0  0
 20 22  1  0  0  0  0
 20 27  1  0  0  0  0
 22 23  1  6  0  0  0
 22 24  1  0  0  0  0
 22 25  1  0  0  0  0
 25 26  1  0  0  0  0
 25 53  1  0  0  0  0
 25 54  1  0  0  0  0
 26 55  1  0  0  0  0
 26 56  1  0  0  0  0
 26 70  1  0  0  0  0
 27 57  1  0  0  0  0
 28 58  1  0  0  0  0
 29 59  1  0  0  0  0
 30 60  1  0  0  0  0
 31 32  1  0  0  0  0
 32 33  1  1  0  0  0
 32 42  1  0  0  0  0
 32 34  1  0  0  0  0
 34 35  1  1  0  0  0
 34 36  1  0  0  0  0
 34 47  1  0  0  0  0
 36 37  1  6  0  0  0
 36 38  1  0  0  0  0
 36 46  1  0  0  0  0
 38 39  1  1  0  0  0
 38 40  1  0  0  0  0
 38 45  1  0  0  0  0
 40 41  1  6  0  0  0
 40 42  1  0  0  0  0
 40 43  1  0  0  0  0
 43 44  1  0  0  0  0
 43 61  1  0  0  0  0
 43 62  1  0  0  0  0
 44 63  1  0  0  0  0
 45 64  1  0  0  0  0
 46 65  1  0  0  0  0
 46 66  1  0  0  0  0
 46 73  1  0  0  0  0
 47 67  1  0  0  0  0
 48 68  1  0  0  0  0
 48 69  1  0  0  0  0
 48 71  1  0  0  0  0
M  CHG  4  12   1  26   1  46   1  48   1
M  END
$$$$
