ZINC19702309
 OpenBabel08292219463D

 24 26  0  0  0  0  0  0  0  0999 V2000
    0.0021   -0.0041    0.0020 H   0  0  0  0  0  0  0  0  0  0  0  0
   -0.0127    1.0858    0.0080 C   0  0  0  0  0  0  0  0  0  0  0  0
   -0.6188    1.6077    1.3232 C   0  0  0  0  0  0  0  0  0  0  0  0
    0.4614    2.3888    1.9416 N   0  0  0  0  0  0  0  0  0  0  0  0
    1.5591    2.3512    1.1310 C   0  0  0  0  0  0  0  0  0  0  0  0
    1.3572    1.6174   -0.0022 N   0  0  0  0  0  0  0  0  0  0  0  0
    2.6908    2.9576    1.4119 N   0  0  0  0  0  0  0  0  0  0  0  0
    3.7445    2.8716    0.5473 C   0  0  0  0  0  0  0  0  0  0  0  0
    4.6651    1.8475    0.6644 C   0  0  0  0  0  0  0  0  0  0  0  0
    5.7426    1.7478   -0.2090 C   0  0  0  0  0  0  0  0  0  0  0  0
    5.9477    2.6361   -1.2094 C   0  0  0  0  0  0  0  0  0  0  0  0
    5.0598    3.7262   -1.4173 C   0  0  0  0  0  0  0  0  0  0  0  0
    3.9124    3.8674   -0.5288 C   0  0  0  0  0  0  0  0  0  0  0  0
    3.1488    4.9175   -0.8184 N   0  0  0  0  0  0  0  0  0  0  0  0
    3.8402    5.6196   -2.0902 S   0  0  0  0  0  0  0  0  0  0  0  0
    5.1203    4.6798   -2.3482 N   0  0  0  0  0  0  0  0  0  0  0  0
    4.4735    0.6668    1.9225 Cl  0  0  0  0  0  0  0  0  0  0  0  0
   -1.4798    2.2442    1.1192 H   0  0  0  0  0  0  0  0  0  0  0  0
   -0.9036    0.7759    1.9674 H   0  0  0  0  0  0  0  0  0  0  0  0
   -0.5734    1.4626   -0.8474 H   0  0  0  0  0  0  0  0  0  0  0  0
    2.0129    1.4701   -0.7017 H   0  0  0  0  0  0  0  0  0  0  0  0
    6.4405    0.9331   -0.0844 H   0  0  0  0  0  0  0  0  0  0  0  0
    6.8007    2.5146   -1.8605 H   0  0  0  0  0  0  0  0  0  0  0  0
    0.4036    2.8565    2.7895 H   0  0  0  0  0  0  0  0  0  0  0  0
  1  2  1  0  0  0  0
  2  6  1  0  0  0  0
  2  3  1  0  0  0  0
  2 20  1  0  0  0  0
  3  4  1  0  0  0  0
  3 18  1  0  0  0  0
  3 19  1  0  0  0  0
  4  5  1  0  0  0  0
  4 24  1  0  0  0  0
  5  6  1  0  0  0  0
  5  7  2  0  0  0  0
  6 21  1  0  0  0  0
  7  8  1  0  0  0  0
  8 13  1  0  0  0  0
  8  9  2  0  0  0  0
  9 10  1  0  0  0  0
  9 17  1  0  0  0  0
 10 11  2  0  0  0  0
 10 22  1  0  0  0  0
 11 12  1  0  0  0  0
 11 23  1  0  0  0  0
 12 16  2  0  0  0  0
 12 13  1  0  0  0  0
 13 14  2  0  0  0  0
 14 15  1  0  0  0  0
 15 16  1  0  0  0  0
M  END
$$$$
