ZINC06021043
 OpenBabel08292219463D

 27 27  0  0  1  0  0  0  0  0999 V2000
   -0.0187    1.5258    0.0104 C   0  0  0  0  0  0  0  0  0  0  0  0
    0.0021   -0.0041    0.0020 C   0  0  1  0  0  0  0  0  0  0  0  0
    0.5293   -0.3651    0.8851 H   0  0  0  0  0  0  0  0  0  0  0  0
   -1.4333   -0.5336    0.0129 C   0  0  0  0  0  0  0  0  0  0  0  0
   -1.4136   -2.0361    0.1285 C   0  0  0  0  0  0  0  0  0  0  0  0
   -1.3855   -2.8167   -1.0120 C   0  0  0  0  0  0  0  0  0  0  0  0
   -1.3625   -4.1948   -0.9059 C   0  0  0  0  0  0  0  0  0  0  0  0
   -1.3782   -4.7924    0.3405 C   0  0  0  0  0  0  0  0  0  0  0  0
   -1.4115   -4.0118    1.4809 C   0  0  0  0  0  0  0  0  0  0  0  0
   -1.4292   -2.6337    1.3749 C   0  0  0  0  0  0  0  0  0  0  0  0
    2.1437   -0.5220   -1.0019 C   0  0  0  0  0  0  0  0  0  0  0  0
    1.0039    1.9031    0.0027 H   0  0  0  0  0  0  0  0  0  0  0  0
   -0.5459    1.8868   -0.8726 H   0  0  0  0  0  0  0  0  0  0  0  0
   -0.5289    1.8773    0.9072 H   0  0  0  0  0  0  0  0  0  0  0  0
   -1.9701   -0.1109    0.8621 H   0  0  0  0  0  0  0  0  0  0  0  0
   -1.9334   -0.2470   -0.9122 H   0  0  0  0  0  0  0  0  0  0  0  0
   -1.3777   -2.3499   -1.9859 H   0  0  0  0  0  0  0  0  0  0  0  0
   -1.3368   -4.8047   -1.7969 H   0  0  0  0  0  0  0  0  0  0  0  0
   -1.3647   -5.8691    0.4233 H   0  0  0  0  0  0  0  0  0  0  0  0
   -1.4241   -4.4787    2.4547 H   0  0  0  0  0  0  0  0  0  0  0  0
   -1.4557   -2.0238    2.2658 H   0  0  0  0  0  0  0  0  0  0  0  0
    2.5073    0.4771   -0.7619 H   0  0  0  0  0  0  0  0  0  0  0  0
    2.3745   -1.1999   -0.1801 H   0  0  0  0  0  0  0  0  0  0  0  0
    2.6281   -0.8761   -1.9119 H   0  0  0  0  0  0  0  0  0  0  0  0
    0.6848   -0.4806   -1.2157 N   0  3  0  0  0  0  0  0  0  0  0  0
    0.4743    0.1563   -1.9931 H   0  0  0  0  0  0  0  0  0  0  0  0
    0.3492   -1.4234   -1.4452 H   0  0  0  0  0  0  0  0  0  0  0  0
  1  2  1  0  0  0  0
  1 12  1  0  0  0  0
  1 13  1  0  0  0  0
  1 14  1  0  0  0  0
  2  3  1  1  0  0  0
  2  4  1  0  0  0  0
  2 25  1  0  0  0  0
  4  5  1  0  0  0  0
  4 15  1  0  0  0  0
  4 16  1  0  0  0  0
  5 10  2  0  0  0  0
  5  6  1  0  0  0  0
  6  7  2  0  0  0  0
  6 17  1  0  0  0  0
  7  8  1  0  0  0  0
  7 18  1  0  0  0  0
  8  9  2  0  0  0  0
  8 19  1  0  0  0  0
  9 10  1  0  0  0  0
  9 20  1  0  0  0  0
 10 21  1  0  0  0  0
 11 22  1  0  0  0  0
 11 23  1  0  0  0  0
 11 24  1  0  0  0  0
 11 25  1  0  0  0  0
 25 26  1  0  0  0  0
 25 27  1  0  0  0  0
M  CHG  1  25   1
M  END
$$$$
