ZINC00587541
 OpenBabel08292219463D

 48 51  0  0  1  0  0  0  0  0999 V2000
   -0.0034    1.5030    0.0089 C   0  0  0  0  0  0  0  0  0  0  0  0
    0.0168   -0.0039    0.0006 C   0  0  0  0  0  0  0  0  0  0  0  0
   -0.0920   -0.6994   -1.2063 C   0  0  0  0  0  0  0  0  0  0  0  0
   -0.0732   -2.1059   -1.2196 C   0  0  0  0  0  0  0  0  0  0  0  0
    0.0552   -2.7941   -0.0188 C   0  0  0  0  0  0  0  0  0  0  0  0
    0.1626   -2.0910    1.1701 C   0  0  0  0  0  0  0  0  0  0  0  0
    0.1472   -0.6935    1.1723 C   0  0  0  0  0  0  0  0  0  0  0  0
    0.2581   -0.0217    2.3392 F   0  0  0  0  0  0  0  0  0  0  0  0
    0.2912   -2.7823    2.3722 N   0  0  0  0  0  0  0  0  0  0  0  0
   -0.8946   -3.1811    3.1460 C   0  0  0  0  0  0  0  0  0  0  0  0
   -0.7746   -4.6704    3.4858 C   0  0  0  0  0  0  0  0  0  0  0  0
    0.5034   -4.9148    4.1662 N   0  3  0  0  0  0  0  0  0  0  0  0
    1.6182   -4.6264    3.2551 C   0  0  1  0  0  0  0  0  0  0  0  0
    1.5047   -5.2143    2.3443 H   0  0  0  0  0  0  0  0  0  0  0  0
    1.6166   -3.1399    2.9011 C   0  0  0  0  0  0  0  0  0  0  0  0
    2.9399   -4.9893    3.9351 C   0  0  0  0  0  0  0  0  0  0  0  0
   -0.1815   -2.7926   -2.4110 N   0  0  0  0  0  0  0  0  0  0  0  0
   -0.3075   -2.1780   -3.5931 C   0  0  0  0  0  0  0  0  0  0  0  0
   -0.3380   -0.8012   -3.7066 C   0  0  0  0  0  0  0  0  0  0  0  0
   -0.2286    0.0162   -2.4859 C   0  0  0  0  0  0  0  0  0  0  0  0
   -0.2503    1.2339   -2.5331 O   0  0  0  0  0  0  0  0  0  0  0  0
   -0.4764   -0.1644   -5.0202 C   0  0  0  0  0  0  0  0  0  0  0  0
   -0.5661   -0.8535   -6.0280 O   0  0  0  0  0  0  0  0  0  0  0  0
   -0.5023    1.0562   -5.1090 O   0  0  0  0  0  1  0  0  0  0  0  0
   -0.1571   -4.2571   -2.3811 C   0  0  0  0  0  0  0  0  0  0  0  0
    0.0507   -4.9874   -3.7093 C   0  0  0  0  0  0  0  0  0  0  0  0
   -1.3242   -4.9966   -3.0383 C   0  0  0  0  0  0  0  0  0  0  0  0
    0.9949    1.8810   -0.2117 H   0  0  0  0  0  0  0  0  0  0  0  0
   -0.7026    1.8611   -0.7468 H   0  0  0  0  0  0  0  0  0  0  0  0
   -0.3171    1.8568    0.9910 H   0  0  0  0  0  0  0  0  0  0  0  0
    0.0709   -3.8740   -0.0126 H   0  0  0  0  0  0  0  0  0  0  0  0
   -0.9447   -2.5985    4.0659 H   0  0  0  0  0  0  0  0  0  0  0  0
   -1.7931   -3.0121    2.5526 H   0  0  0  0  0  0  0  0  0  0  0  0
   -1.5962   -4.9613    4.1403 H   0  0  0  0  0  0  0  0  0  0  0  0
   -0.8157   -5.2570    2.5680 H   0  0  0  0  0  0  0  0  0  0  0  0
    0.5707   -4.3184    4.9773 H   0  0  0  0  0  0  0  0  0  0  0  0
    2.3775   -2.9435    2.1458 H   0  0  0  0  0  0  0  0  0  0  0  0
    1.8244   -2.5530    3.7958 H   0  0  0  0  0  0  0  0  0  0  0  0
    2.9404   -6.0501    4.1854 H   0  0  0  0  0  0  0  0  0  0  0  0
    3.7673   -4.7751    3.2587 H   0  0  0  0  0  0  0  0  0  0  0  0
    3.0534   -4.4011    4.8457 H   0  0  0  0  0  0  0  0  0  0  0  0
   -0.3877   -2.7777   -4.4877 H   0  0  0  0  0  0  0  0  0  0  0  0
    0.2815   -4.7018   -1.4878 H   0  0  0  0  0  0  0  0  0  0  0  0
    0.1693   -4.3783   -4.6055 H   0  0  0  0  0  0  0  0  0  0  0  0
    0.6264   -5.9128   -3.6901 H   0  0  0  0  0  0  0  0  0  0  0  0
   -1.6531   -5.9281   -2.5775 H   0  0  0  0  0  0  0  0  0  0  0  0
   -2.1102   -4.3936   -3.4928 H   0  0  0  0  0  0  0  0  0  0  0  0
    0.5492   -5.8800    4.4567 H   0  0  0  0  0  0  0  0  0  0  0  0
  1  2  1  0  0  0  0
  1 28  1  0  0  0  0
  1 29  1  0  0  0  0
  1 30  1  0  0  0  0
  2  7  2  0  0  0  0
  2  3  1  0  0  0  0
  3 20  1  0  0  0  0
  3  4  2  0  0  0  0
  4  5  1  0  0  0  0
  4 17  1  0  0  0  0
  5  6  2  0  0  0  0
  5 31  1  0  0  0  0
  6  7  1  0  0  0  0
  6  9  1  0  0  0  0
  7  8  1  0  0  0  0
  9 15  1  0  0  0  0
  9 10  1  0  0  0  0
 10 11  1  0  0  0  0
 10 32  1  0  0  0  0
 10 33  1  0  0  0  0
 11 12  1  0  0  0  0
 11 34  1  0  0  0  0
 11 35  1  0  0  0  0
 12 13  1  0  0  0  0
 12 36  1  0  0  0  0
 12 48  1  0  0  0  0
 13 14  1  6  0  0  0
 13 15  1  0  0  0  0
 13 16  1  0  0  0  0
 15 37  1  0  0  0  0
 15 38  1  0  0  0  0
 16 39  1  0  0  0  0
 16 40  1  0  0  0  0
 16 41  1  0  0  0  0
 17 18  1  0  0  0  0
 17 25  1  0  0  0  0
 18 19  2  0  0  0  0
 18 42  1  0  0  0  0
 19 20  1  0  0  0  0
 19 22  1  0  0  0  0
 20 21  2  0  0  0  0
 22 23  2  0  0  0  0
 22 24  1  0  0  0  0
 25 27  1  0  0  0  0
 25 26  1  0  0  0  0
 25 43  1  0  0  0  0
 26 27  1  0  0  0  0
 26 44  1  0  0  0  0
 26 45  1  0  0  0  0
 27 46  1  0  0  0  0
 27 47  1  0  0  0  0
M  CHG  1  12   1
M  END
$$$$
