ZINC19594535
 OpenBabel08292219463D

 41 43  0  0  1  0  0  0  0  0999 V2000
   -0.0184    1.5028    0.0103 C   0  0  0  0  0  0  0  0  0  0  0  0
    0.0021   -0.0041    0.0020 C   0  0  0  0  0  0  0  0  0  0  0  0
   -1.1812   -0.6001    0.0049 C   0  0  0  0  0  0  0  0  0  0  0  0
   -1.2792   -2.0012   -0.0500 N   0  0  0  0  0  0  0  0  0  0  0  0
   -0.1995   -2.9851    0.2230 C   0  0  1  0  0  0  0  0  0  0  0  0
   -0.0517   -3.2448    1.2712 H   0  0  0  0  0  0  0  0  0  0  0  0
   -1.0295   -3.9685   -0.5740 C   0  0  1  0  0  0  0  0  0  0  0  0
   -1.2069   -4.9156   -0.0644 H   0  0  0  0  0  0  0  0  0  0  0  0
   -2.1293   -2.9585   -0.3915 C   0  0  0  0  0  0  0  0  0  0  0  0
   -3.3354   -3.0033   -0.5114 O   0  0  0  0  0  0  0  0  0  0  0  0
   -0.5900   -4.1339   -1.9617 N   0  0  0  0  0  0  0  0  0  0  0  0
   -0.8644   -5.2752   -2.6240 C   0  0  0  0  0  0  0  0  0  0  0  0
   -1.4752   -6.1653   -2.0711 O   0  0  0  0  0  0  0  0  0  0  0  0
   -0.4124   -5.4454   -4.0514 C   0  0  1  0  0  0  0  0  0  0  0  0
   -0.5514   -4.5085   -4.5908 H   0  0  0  0  0  0  0  0  0  0  0  0
    1.0454   -5.8268   -4.0746 C   0  0  0  0  0  0  0  0  0  0  0  0
    1.4198   -7.1371   -3.8412 C   0  0  0  0  0  0  0  0  0  0  0  0
    2.7555   -7.4892   -3.8615 C   0  0  0  0  0  0  0  0  0  0  0  0
    3.7215   -6.5267   -4.1167 C   0  0  0  0  0  0  0  0  0  0  0  0
    3.3432   -5.2127   -4.3511 C   0  0  0  0  0  0  0  0  0  0  0  0
    2.0059   -4.8668   -4.3349 C   0  0  0  0  0  0  0  0  0  0  0  0
    5.0361   -6.8704   -4.1368 O   0  0  0  0  0  0  0  0  0  0  0  0
   -1.2053   -6.5023   -4.6935 N   0  0  0  0  0  0  0  0  0  0  0  0
    1.2943   -2.3448   -0.6082 S   0  0  0  0  0  0  0  0  0  0  0  0
    1.3546   -0.6399   -0.0143 C   0  0  0  0  0  0  0  0  0  0  0  0
   -2.4062    0.2135    0.0668 C   0  0  0  0  0  0  0  0  0  0  0  0
   -2.3284    1.4336    0.1152 O   0  0  0  0  0  0  0  0  0  0  0  0
   -3.5022   -0.3302    0.0698 O   0  0  0  0  0  1  0  0  0  0  0  0
    1.0042    1.8801    0.0026 H   0  0  0  0  0  0  0  0  0  0  0  0
   -0.5455    1.8639   -0.8728 H   0  0  0  0  0  0  0  0  0  0  0  0
   -0.5286    1.8543    0.9071 H   0  0  0  0  0  0  0  0  0  0  0  0
   -0.1015   -3.4221   -2.4039 H   0  0  0  0  0  0  0  0  0  0  0  0
    0.6674   -7.8860   -3.6426 H   0  0  0  0  0  0  0  0  0  0  0  0
    3.0475   -8.5127   -3.6784 H   0  0  0  0  0  0  0  0  0  0  0  0
    4.0934   -4.4616   -4.5500 H   0  0  0  0  0  0  0  0  0  0  0  0
    1.7106   -3.8448   -4.5216 H   0  0  0  0  0  0  0  0  0  0  0  0
    5.3587   -7.1411   -5.0073 H   0  0  0  0  0  0  0  0  0  0  0  0
   -0.9656   -6.5917   -5.6695 H   0  0  0  0  0  0  0  0  0  0  0  0
   -1.0932   -7.3817   -4.2116 H   0  0  0  0  0  0  0  0  0  0  0  0
    2.0130   -0.0577   -0.6589 H   0  0  0  0  0  0  0  0  0  0  0  0
    1.7594   -0.6397    0.9977 H   0  0  0  0  0  0  0  0  0  0  0  0
  1  2  1  0  0  0  0
  1 29  1  0  0  0  0
  1 30  1  0  0  0  0
  1 31  1  0  0  0  0
  2 25  1  0  0  0  0
  2  3  2  0  0  0  0
  3  4  1  0  0  0  0
  3 26  1  0  0  0  0
  4  9  1  0  0  0  0
  4  5  1  0  0  0  0
  5  6  1  1  0  0  0
  5  7  1  0  0  0  0
  5 24  1  0  0  0  0
  7  8  1  1  0  0  0
  7  9  1  0  0  0  0
  7 11  1  0  0  0  0
  9 10  2  0  0  0  0
 11 12  1  0  0  0  0
 11 32  1  0  0  0  0
 12 13  2  0  0  0  0
 12 14  1  0  0  0  0
 14 15  1  6  0  0  0
 14 16  1  0  0  0  0
 14 23  1  0  0  0  0
 16 21  2  0  0  0  0
 16 17  1  0  0  0  0
 17 18  2  0  0  0  0
 17 33  1  0  0  0  0
 18 19  1  0  0  0  0
 18 34  1  0  0  0  0
 19 20  2  0  0  0  0
 19 22  1  0  0  0  0
 20 21  1  0  0  0  0
 20 35  1  0  0  0  0
 21 36  1  0  0  0  0
 22 37  1  0  0  0  0
 23 38  1  0  0  0  0
 23 39  1  0  0  0  0
 24 25  1  0  0  0  0
 25 40  1  0  0  0  0
 25 41  1  0  0  0  0
 26 27  2  0  0  0  0
 26 28  1  0  0  0  0
M  END
$$$$
