ZINC06627681
 OpenBabel08292219463D

 39 40  0  0  0  0  0  0  0  0999 V2000
   -0.0173    1.4248    0.0099 C   0  0  0  0  0  0  0  0  0  0  0  0
    0.0021   -0.0041    0.0020 O   0  0  0  0  0  0  0  0  0  0  0  0
   -1.2011   -0.6379    0.0101 C   0  0  0  0  0  0  0  0  0  0  0  0
   -2.3748    0.1005    0.0195 C   0  0  0  0  0  0  0  0  0  0  0  0
   -3.5982   -0.5428    0.0277 C   0  0  0  0  0  0  0  0  0  0  0  0
   -3.6572   -1.9238    0.0266 C   0  0  0  0  0  0  0  0  0  0  0  0
   -2.4882   -2.6696    0.0172 C   0  0  0  0  0  0  0  0  0  0  0  0
   -1.2561   -2.0266    0.0032 C   0  0  0  0  0  0  0  0  0  0  0  0
   -0.1065   -2.7549   -0.0117 O   0  0  0  0  0  0  0  0  0  0  0  0
    0.4536   -3.1089    1.2544 C   0  0  0  0  0  0  0  0  0  0  0  0
   -2.5472   -4.0282    0.0166 O   0  0  0  0  0  0  0  0  0  0  0  0
   -3.8474   -4.6211    0.0259 C   0  0  0  0  0  0  0  0  0  0  0  0
   -4.8712    0.2637    0.0384 C   0  0  0  0  0  0  0  0  0  0  0  0
   -5.3062    0.5346   -1.3789 C   0  0  0  0  0  0  0  0  0  0  0  0
   -4.9545    1.7101   -2.0132 C   0  0  0  0  0  0  0  0  0  0  0  0
   -5.3522    1.9181   -3.2597 N   0  0  0  0  0  0  0  0  0  0  0  0
   -6.0798    1.0161   -3.9019 C   0  0  0  0  0  0  0  0  0  0  0  0
   -6.4382   -0.1231   -3.3293 N   0  0  0  0  0  0  0  0  0  0  0  0
   -6.0690   -0.3996   -2.0826 C   0  0  0  0  0  0  0  0  0  0  0  0
   -6.4404   -1.5946   -1.4883 N   0  0  0  0  0  0  0  0  0  0  0  0
   -6.4756    1.2708   -5.2034 N   0  0  0  0  0  0  0  0  0  0  0  0
    1.0053    1.8021    0.0021 H   0  0  0  0  0  0  0  0  0  0  0  0
   -0.5445    1.7859   -0.8732 H   0  0  0  0  0  0  0  0  0  0  0  0
   -0.5275    1.7763    0.9067 H   0  0  0  0  0  0  0  0  0  0  0  0
   -2.3329    1.1797    0.0207 H   0  0  0  0  0  0  0  0  0  0  0  0
   -4.6151   -2.4227    0.0334 H   0  0  0  0  0  0  0  0  0  0  0  0
   -0.2648   -3.7070    1.8151 H   0  0  0  0  0  0  0  0  0  0  0  0
    1.3650   -3.6864    1.0998 H   0  0  0  0  0  0  0  0  0  0  0  0
    0.6878   -2.2033    1.8141 H   0  0  0  0  0  0  0  0  0  0  0  0
   -4.3845   -4.3050    0.9202 H   0  0  0  0  0  0  0  0  0  0  0  0
   -4.3978   -4.3036   -0.8597 H   0  0  0  0  0  0  0  0  0  0  0  0
   -3.7517   -5.7069    0.0243 H   0  0  0  0  0  0  0  0  0  0  0  0
   -5.6506   -0.2944    0.5572 H   0  0  0  0  0  0  0  0  0  0  0  0
   -4.6980    1.2092    0.5523 H   0  0  0  0  0  0  0  0  0  0  0  0
   -4.3619    2.4519   -1.4984 H   0  0  0  0  0  0  0  0  0  0  0  0
   -6.1706   -1.7873   -0.5767 H   0  0  0  0  0  0  0  0  0  0  0  0
   -6.2200    2.1014   -5.6342 H   0  0  0  0  0  0  0  0  0  0  0  0
   -7.0085    0.6187   -5.6847 H   0  0  0  0  0  0  0  0  0  0  0  0
   -6.9704   -2.2385   -1.9837 H   0  0  0  0  0  0  0  0  0  0  0  0
  1  2  1  0  0  0  0
  1 22  1  0  0  0  0
  1 23  1  0  0  0  0
  1 24  1  0  0  0  0
  2  3  1  0  0  0  0
  3  8  2  0  0  0  0
  3  4  1  0  0  0  0
  4  5  2  0  0  0  0
  4 25  1  0  0  0  0
  5  6  1  0  0  0  0
  5 13  1  0  0  0  0
  6  7  2  0  0  0  0
  6 26  1  0  0  0  0
  7  8  1  0  0  0  0
  7 11  1  0  0  0  0
  8  9  1  0  0  0  0
  9 10  1  0  0  0  0
 10 27  1  0  0  0  0
 10 28  1  0  0  0  0
 10 29  1  0  0  0  0
 11 12  1  0  0  0  0
 12 30  1  0  0  0  0
 12 31  1  0  0  0  0
 12 32  1  0  0  0  0
 13 14  1  0  0  0  0
 13 33  1  0  0  0  0
 13 34  1  0  0  0  0
 14 19  2  0  0  0  0
 14 15  1  0  0  0  0
 15 16  2  0  0  0  0
 15 35  1  0  0  0  0
 16 17  1  0  0  0  0
 17 18  2  0  0  0  0
 17 21  1  0  0  0  0
 18 19  1  0  0  0  0
 19 20  1  0  0  0  0
 20 36  1  0  0  0  0
 20 39  1  0  0  0  0
 21 37  1  0  0  0  0
 21 38  1  0  0  0  0
M  END
$$$$
