ZINC03798763
 OpenBabel08292219463D

 65 66  0  0  1  0  0  0  0  0999 V2000
    0.5827    0.9928   -1.0170 C   0  0  0  0  0  0  0  0  0  0  0  0
    0.4349   -0.5218   -1.1757 C   0  0  0  0  0  0  0  0  0  0  0  0
   -0.9826   -0.9402   -0.7801 C   0  0  2  0  0  0  0  0  0  0  0  0
   -1.7058   -0.3695   -1.3627 H   0  0  0  0  0  0  0  0  0  0  0  0
   -1.1981   -0.6664    0.7097 C   0  0  0  0  0  0  0  0  0  0  0  0
   -1.1667   -2.4109   -1.0524 C   0  0  0  0  0  0  0  0  0  0  0  0
   -0.2575   -3.0580   -1.5154 O   0  0  0  0  0  0  0  0  0  0  0  0
   -2.3408   -3.0019   -0.7806 O   0  0  0  0  0  0  0  0  0  0  0  0
   -2.4449   -4.3987   -1.0638 C   0  0  1  0  0  0  0  0  0  0  0  0
   -1.7923   -4.6394   -1.9030 H   0  0  0  0  0  0  0  0  0  0  0  0
   -1.9899   -5.1889    0.1614 C   0  0  0  0  0  0  0  0  0  0  0  0
   -2.1343   -6.6858   -0.1477 C   0  0  1  0  0  0  0  0  0  0  0  0
   -1.7909   -7.2739    0.7034 H   0  0  0  0  0  0  0  0  0  0  0  0
   -3.5941   -6.9603   -0.4032 C   0  0  0  0  0  0  0  0  0  0  0  0
   -4.3655   -6.0500   -0.9678 C   0  0  0  0  0  0  0  0  0  0  0  0
   -3.8705   -4.7175   -1.4436 C   0  0  1  0  0  0  0  0  0  0  0  0
   -3.9230   -4.7251   -2.5323 H   0  0  0  0  0  0  0  0  0  0  0  0
   -4.8506   -3.6456   -0.9629 C   0  0  2  0  0  0  0  0  0  0  0  0
   -4.9349   -3.6876    0.1230 H   0  0  0  0  0  0  0  0  0  0  0  0
   -6.2178   -3.9137   -1.5946 C   0  0  2  0  0  0  0  0  0  0  0  0
   -6.9590   -3.2667   -1.1254 H   0  0  0  0  0  0  0  0  0  0  0  0
   -6.6378   -5.3416   -1.4239 C   0  0  0  0  0  0  0  0  0  0  0  0
   -5.8082   -6.3314   -1.1499 C   0  0  0  0  0  0  0  0  0  0  0  0
   -6.1489   -3.5909   -3.0885 C   0  0  0  0  0  0  0  0  0  0  0  0
   -4.3481   -2.2637   -1.3856 C   0  0  0  0  0  0  0  0  0  0  0  0
   -5.5071   -1.2657   -1.3472 C   0  0  0  0  0  0  0  0  0  0  0  0
   -5.0046    0.1162   -1.7700 C   0  0  2  0  0  0  0  0  0  0  0  0
   -4.1620    0.4043   -1.1414 H   0  0  0  0  0  0  0  0  0  0  0  0
   -6.1315    1.1389   -1.6125 C   0  0  0  0  0  0  0  0  0  0  0  0
   -5.5953    2.5394   -1.9154 C   0  0  2  0  0  0  0  0  0  0  0  0
   -4.7320    2.7429   -1.2817 H   0  0  0  0  0  0  0  0  0  0  0  0
   -6.6871    3.5747   -1.6377 C   0  0  0  0  0  0  0  0  0  0  0  0
   -6.1228    4.9604   -1.8177 C   0  0  0  0  0  0  0  0  0  0  0  0
   -4.9556    5.1065   -2.1383 O   0  0  0  0  0  0  0  0  0  0  0  0
   -6.8335    5.9355   -1.6426 O   0  0  0  0  0  1  0  0  0  0  0  0
   -5.2064    2.6139   -3.2884 O   0  0  0  0  0  0  0  0  0  0  0  0
   -4.5872    0.0739   -3.1360 O   0  0  0  0  0  0  0  0  0  0  0  0
   -1.3673   -7.0175   -1.3069 O   0  0  0  0  0  0  0  0  0  0  0  0
    1.5925    1.2908   -1.2988 H   0  0  0  0  0  0  0  0  0  0  0  0
   -0.1380    1.4976   -1.6603 H   0  0  0  0  0  0  0  0  0  0  0  0
    0.3988    1.2689    0.0213 H   0  0  0  0  0  0  0  0  0  0  0  0
    0.6188   -0.7979   -2.2140 H   0  0  0  0  0  0  0  0  0  0  0  0
    1.1556   -1.0266   -0.5324 H   0  0  0  0  0  0  0  0  0  0  0  0
   -2.2079   -0.9645    0.9915 H   0  0  0  0  0  0  0  0  0  0  0  0
   -0.4749   -1.2371    1.2923 H   0  0  0  0  0  0  0  0  0  0  0  0
   -1.0649    0.3973    0.9066 H   0  0  0  0  0  0  0  0  0  0  0  0
   -0.9475   -4.9581    0.3809 H   0  0  0  0  0  0  0  0  0  0  0  0
   -2.6122   -4.9291    1.0178 H   0  0  0  0  0  0  0  0  0  0  0  0
   -4.0144   -7.9144   -0.1211 H   0  0  0  0  0  0  0  0  0  0  0  0
   -7.6859   -5.5769   -1.5358 H   0  0  0  0  0  0  0  0  0  0  0  0
   -6.1808   -7.3405   -1.0537 H   0  0  0  0  0  0  0  0  0  0  0  0
   -5.3956   -4.2206   -3.5620 H   0  0  0  0  0  0  0  0  0  0  0  0
   -7.1200   -3.7795   -3.5462 H   0  0  0  0  0  0  0  0  0  0  0  0
   -5.8819   -2.5425   -3.2218 H   0  0  0  0  0  0  0  0  0  0  0  0
   -3.5646   -1.9371   -0.7017 H   0  0  0  0  0  0  0  0  0  0  0  0
   -3.9477   -2.3167   -2.3980 H   0  0  0  0  0  0  0  0  0  0  0  0
   -6.2906   -1.5923   -2.0311 H   0  0  0  0  0  0  0  0  0  0  0  0
   -5.9075   -1.2127   -0.3348 H   0  0  0  0  0  0  0  0  0  0  0  0
   -6.9379    0.9007   -2.3061 H   0  0  0  0  0  0  0  0  0  0  0  0
   -6.5101    1.1079   -0.5908 H   0  0  0  0  0  0  0  0  0  0  0  0
   -7.5139    3.4260   -2.3323 H   0  0  0  0  0  0  0  0  0  0  0  0
   -7.0462    3.4586   -0.6152 H   0  0  0  0  0  0  0  0  0  0  0  0
   -5.9264    2.4432   -3.9110 H   0  0  0  0  0  0  0  0  0  0  0  0
   -5.2878   -0.1762   -3.7538 H   0  0  0  0  0  0  0  0  0  0  0  0
   -1.4154   -7.9505   -1.5567 H   0  0  0  0  0  0  0  0  0  0  0  0
  1  2  1  0  0  0  0
  1 39  1  0  0  0  0
  1 40  1  0  0  0  0
  1 41  1  0  0  0  0
  2  3  1  0  0  0  0
  2 42  1  0  0  0  0
  2 43  1  0  0  0  0
  3  4  1  6  0  0  0
  3  5  1  0  0  0  0
  3  6  1  0  0  0  0
  5 44  1  0  0  0  0
  5 45  1  0  0  0  0
  5 46  1  0  0  0  0
  6  7  2  0  0  0  0
  6  8  1  0  0  0  0
  8  9  1  0  0  0  0
  9 10  1  6  0  0  0
  9 16  1  0  0  0  0
  9 11  1  0  0  0  0
 11 12  1  0  0  0  0
 11 47  1  0  0  0  0
 11 48  1  0  0  0  0
 12 13  1  1  0  0  0
 12 14  1  0  0  0  0
 12 38  1  0  0  0  0
 14 15  2  0  0  0  0
 14 49  1  0  0  0  0
 15 23  1  0  0  0  0
 15 16  1  0  0  0  0
 16 17  1  6  0  0  0
 16 18  1  0  0  0  0
 18 19  1  1  0  0  0
 18 20  1  0  0  0  0
 18 25  1  0  0  0  0
 20 21  1  1  0  0  0
 20 22  1  0  0  0  0
 20 24  1  0  0  0  0
 22 23  2  0  0  0  0
 22 50  1  0  0  0  0
 23 51  1  0  0  0  0
 24 52  1  0  0  0  0
 24 53  1  0  0  0  0
 24 54  1  0  0  0  0
 25 26  1  0  0  0  0
 25 55  1  0  0  0  0
 25 56  1  0  0  0  0
 26 27  1  0  0  0  0
 26 57  1  0  0  0  0
 26 58  1  0  0  0  0
 27 28  1  1  0  0  0
 27 29  1  0  0  0  0
 27 37  1  0  0  0  0
 29 30  1  0  0  0  0
 29 59  1  0  0  0  0
 29 60  1  0  0  0  0
 30 31  1  1  0  0  0
 30 32  1  0  0  0  0
 30 36  1  0  0  0  0
 32 33  1  0  0  0  0
 32 61  1  0  0  0  0
 32 62  1  0  0  0  0
 33 34  2  0  0  0  0
 33 35  1  0  0  0  0
 36 63  1  0  0  0  0
 37 64  1  0  0  0  0
 38 65  1  0  0  0  0
M  END
$$$$
