ZINC21986258
 OpenBabel08292219463D

 31 31  0  0  1  0  0  0  0  0999 V2000
   -0.4168    1.3350    0.4126 C   0  0  0  0  0  0  0  0  0  0  0  0
    0.7079    2.0652    0.2243 C   0  0  0  0  0  0  0  0  0  0  0  0
    1.9011    1.4245    0.0741 N   0  0  0  0  0  0  0  0  0  0  0  0
    1.9607    0.0807    0.1124 C   0  0  0  0  0  0  0  0  0  0  0  0
    3.0375   -0.4761   -0.0235 O   0  0  0  0  0  0  0  0  0  0  0  0
    0.8634   -0.6512    0.2968 N   0  0  0  0  0  0  0  0  0  0  0  0
   -0.3201   -0.0713    0.4477 C   0  0  0  0  0  0  0  0  0  0  0  0
   -1.4467   -0.8375    0.6375 N   0  0  0  0  0  0  0  0  0  0  0  0
    3.1253    2.2027   -0.1308 C   0  0  0  0  0  0  0  0  0  0  0  0
    3.7582    2.5240    1.2246 C   0  0  1  0  0  0  0  0  0  0  0  0
    4.0001    1.5955    1.7419 H   0  0  0  0  0  0  0  0  0  0  0  0
    5.0368    3.3366    1.0107 C   0  0  0  0  0  0  0  0  0  0  0  0
    4.7373    4.5014    0.2389 O   0  0  0  0  0  0  0  0  0  0  0  0
    2.8380    3.2822    2.0123 O   0  0  0  0  0  0  0  0  0  0  0  0
    3.0281    3.1440    3.4218 C   0  0  0  0  0  0  0  0  0  0  0  0
    2.3814    1.5290    3.9667 P   0  0  1  0  0  0  0  0  0  0  0  0
    0.9132    1.3811    3.5091 O   0  0  0  0  0  0  0  0  0  0  0  0
    3.2309    0.3979    3.3454 O   0  0  0  0  0  1  0  0  0  0  0  0
    2.4551    1.4354    5.5723 O   0  0  0  0  0  0  0  0  0  0  0  0
   -1.3723    1.8223    0.5383 H   0  0  0  0  0  0  0  0  0  0  0  0
    0.6597    3.1437    0.1932 H   0  0  0  0  0  0  0  0  0  0  0  0
   -2.3108   -0.4106    0.7476 H   0  0  0  0  0  0  0  0  0  0  0  0
   -1.3771   -1.8048    0.6613 H   0  0  0  0  0  0  0  0  0  0  0  0
    3.8272    1.6243   -0.7316 H   0  0  0  0  0  0  0  0  0  0  0  0
    2.8834    3.1312   -0.6480 H   0  0  0  0  0  0  0  0  0  0  0  0
    5.4432    3.6356    1.9769 H   0  0  0  0  0  0  0  0  0  0  0  0
    5.7696    2.7282    0.4808 H   0  0  0  0  0  0  0  0  0  0  0  0
    5.5033    5.0651    0.0642 H   0  0  0  0  0  0  0  0  0  0  0  0
    4.0914    3.2063    3.6529 H   0  0  0  0  0  0  0  0  0  0  0  0
    2.4962    3.9419    3.9401 H   0  0  0  0  0  0  0  0  0  0  0  0
    2.1265    0.6006    5.9331 H   0  0  0  0  0  0  0  0  0  0  0  0
  1  7  1  0  0  0  0
  1  2  2  0  0  0  0
  1 20  1  0  0  0  0
  2  3  1  0  0  0  0
  2 21  1  0  0  0  0
  3  4  1  0  0  0  0
  3  9  1  0  0  0  0
  4  5  2  0  0  0  0
  4  6  1  0  0  0  0
  6  7  2  0  0  0  0
  7  8  1  0  0  0  0
  8 22  1  0  0  0  0
  8 23  1  0  0  0  0
  9 10  1  0  0  0  0
  9 24  1  0  0  0  0
  9 25  1  0  0  0  0
 10 11  1  1  0  0  0
 10 12  1  0  0  0  0
 10 14  1  0  0  0  0
 12 13  1  0  0  0  0
 12 26  1  0  0  0  0
 12 27  1  0  0  0  0
 13 28  1  0  0  0  0
 14 15  1  0  0  0  0
 15 16  1  0  0  0  0
 15 29  1  0  0  0  0
 15 30  1  0  0  0  0
 16 17  2  6  0  0  0
 16 18  1  0  0  0  0
 16 19  1  0  0  0  0
 19 31  1  0  0  0  0
M  END
$$$$
