ZINC00896849
 OpenBabel08292219463D

 49 51  0  0  1  0  0  0  0  0999 V2000
   -0.0241    0.9821    0.5570 C   0  0  0  0  0  0  0  0  0  0  0  0
    0.0394   -0.5393    0.4072 C   0  0  0  0  0  0  0  0  0  0  0  0
    0.7227   -0.8883   -0.8898 C   0  0  0  0  0  0  0  0  0  0  0  0
    1.1200   -0.0066   -1.6226 O   0  0  0  0  0  0  0  0  0  0  0  0
    0.9074   -2.2935   -1.2664 C   0  0  0  0  0  0  0  0  0  0  0  0
    0.4442   -3.3125   -0.4244 C   0  0  0  0  0  0  0  0  0  0  0  0
    0.6181   -4.6285   -0.7849 C   0  0  0  0  0  0  0  0  0  0  0  0
    1.2538   -4.9536   -1.9808 C   0  0  0  0  0  0  0  0  0  0  0  0
    1.7237   -3.9459   -2.8265 C   0  0  0  0  0  0  0  0  0  0  0  0
    1.5425   -2.6198   -2.4718 C   0  0  0  0  0  0  0  0  0  0  0  0
    2.3749   -4.2362   -4.0233 N   0  0  0  0  0  0  0  0  0  0  0  0
    2.2183   -5.4144   -4.7478 C   0  0  0  0  0  0  0  0  0  0  0  0
    2.4771   -5.4007   -6.1147 C   0  0  0  0  0  0  0  0  0  0  0  0
    2.3363   -6.5535   -6.8631 C   0  0  0  0  0  0  0  0  0  0  0  0
    1.9376   -7.7309   -6.2587 C   0  0  0  0  0  0  0  0  0  0  0  0
    1.6757   -7.7558   -4.9014 C   0  0  0  0  0  0  0  0  0  0  0  0
    1.8109   -6.6006   -4.1442 C   0  0  0  0  0  0  0  0  0  0  0  0
    1.4574   -6.6478   -2.4197 S   0  0  0  0  0  0  0  0  0  0  0  0
    3.2926   -3.2274   -4.5585 C   0  0  0  0  0  0  0  0  0  0  0  0
    4.6613   -3.3779   -3.8916 C   0  0  1  0  0  0  0  0  0  0  0  0
    4.5449   -3.3323   -2.8088 H   0  0  0  0  0  0  0  0  0  0  0  0
    5.2737   -4.7245   -4.2824 C   0  0  0  0  0  0  0  0  0  0  0  0
    5.5445   -2.2911   -4.3353 N   0  3  0  0  0  0  0  0  0  0  0  0
    5.0080   -1.0043   -3.8725 C   0  0  0  0  0  0  0  0  0  0  0  0
    6.8875   -2.4918   -3.7749 C   0  0  0  0  0  0  0  0  0  0  0  0
    0.9869    1.3895    0.5578 H   0  0  0  0  0  0  0  0  0  0  0  0
   -0.5860    1.4060   -0.2752 H   0  0  0  0  0  0  0  0  0  0  0  0
   -0.5183    1.2345    1.4952 H   0  0  0  0  0  0  0  0  0  0  0  0
    0.6013   -0.9632    1.2395 H   0  0  0  0  0  0  0  0  0  0  0  0
   -0.9716   -0.9467    0.4064 H   0  0  0  0  0  0  0  0  0  0  0  0
   -0.0475   -3.0658    0.5050 H   0  0  0  0  0  0  0  0  0  0  0  0
    0.2598   -5.4145   -0.1365 H   0  0  0  0  0  0  0  0  0  0  0  0
    1.8953   -1.8348   -3.1242 H   0  0  0  0  0  0  0  0  0  0  0  0
    2.7893   -4.4842   -6.5933 H   0  0  0  0  0  0  0  0  0  0  0  0
    2.5382   -6.5346   -7.9239 H   0  0  0  0  0  0  0  0  0  0  0  0
    1.8304   -8.6307   -6.8463 H   0  0  0  0  0  0  0  0  0  0  0  0
    1.3645   -8.6760   -4.4295 H   0  0  0  0  0  0  0  0  0  0  0  0
    3.3958   -3.3647   -5.6349 H   0  0  0  0  0  0  0  0  0  0  0  0
    2.8970   -2.2322   -4.3555 H   0  0  0  0  0  0  0  0  0  0  0  0
    5.3902   -4.7701   -5.3652 H   0  0  0  0  0  0  0  0  0  0  0  0
    6.2488   -4.8318   -3.8073 H   0  0  0  0  0  0  0  0  0  0  0  0
    4.6184   -5.5309   -3.9532 H   0  0  0  0  0  0  0  0  0  0  0  0
    4.0569   -0.8080   -4.3675 H   0  0  0  0  0  0  0  0  0  0  0  0
    4.8554   -1.0411   -2.7938 H   0  0  0  0  0  0  0  0  0  0  0  0
    5.7135   -0.2090   -4.1127 H   0  0  0  0  0  0  0  0  0  0  0  0
    7.2855   -3.4466   -4.1183 H   0  0  0  0  0  0  0  0  0  0  0  0
    7.5427   -1.6854   -4.1041 H   0  0  0  0  0  0  0  0  0  0  0  0
    6.8306   -2.4922   -2.6864 H   0  0  0  0  0  0  0  0  0  0  0  0
    5.5971   -2.2907   -5.3430 H   0  0  0  0  0  0  0  0  0  0  0  0
  1  2  1  0  0  0  0
  1 26  1  0  0  0  0
  1 27  1  0  0  0  0
  1 28  1  0  0  0  0
  2  3  1  0  0  0  0
  2 29  1  0  0  0  0
  2 30  1  0  0  0  0
  3  4  2  0  0  0  0
  3  5  1  0  0  0  0
  5 10  2  0  0  0  0
  5  6  1  0  0  0  0
  6  7  2  0  0  0  0
  6 31  1  0  0  0  0
  7  8  1  0  0  0  0
  7 32  1  0  0  0  0
  8 18  1  0  0  0  0
  8  9  2  0  0  0  0
  9 10  1  0  0  0  0
  9 11  1  0  0  0  0
 10 33  1  0  0  0  0
 11 12  1  0  0  0  0
 11 19  1  0  0  0  0
 12 17  2  0  0  0  0
 12 13  1  0  0  0  0
 13 14  2  0  0  0  0
 13 34  1  0  0  0  0
 14 15  1  0  0  0  0
 14 35  1  0  0  0  0
 15 16  2  0  0  0  0
 15 36  1  0  0  0  0
 16 17  1  0  0  0  0
 16 37  1  0  0  0  0
 17 18  1  0  0  0  0
 19 20  1  0  0  0  0
 19 38  1  0  0  0  0
 19 39  1  0  0  0  0
 20 21  1  1  0  0  0
 20 22  1  0  0  0  0
 20 23  1  0  0  0  0
 22 40  1  0  0  0  0
 22 41  1  0  0  0  0
 22 42  1  0  0  0  0
 23 24  1  0  0  0  0
 23 25  1  0  0  0  0
 23 49  1  0  0  0  0
 24 43  1  0  0  0  0
 24 44  1  0  0  0  0
 24 45  1  0  0  0  0
 25 46  1  0  0  0  0
 25 47  1  0  0  0  0
 25 48  1  0  0  0  0
M  CHG  1  23   1
M  END
$$$$
