ZINC04393164
 OpenBabel08292219463D

 93 93  0  0  1  0  0  0  0  0999 V2000
    2.7303    2.3271   -1.6084 C   0  0  0  0  0  0  0  0  0  0  0  0
    1.8970    3.5781   -1.3229 C   0  0  0  0  0  0  0  0  0  0  0  0
    2.1730    4.0604    0.1026 C   0  0  0  0  0  0  0  0  0  0  0  0
    2.2738    4.6794   -2.3159 C   0  0  1  0  0  0  0  0  0  0  0  0
    2.1745    4.3009   -3.3332 H   0  0  0  0  0  0  0  0  0  0  0  0
    1.3430    5.8786   -2.1249 C   0  0  0  0  0  0  0  0  0  0  0  0
   -0.0627    5.4887   -2.5030 C   0  0  0  0  0  0  0  0  0  0  0  0
   -0.9040    4.9364   -1.5550 C   0  0  0  0  0  0  0  0  0  0  0  0
   -2.1945    4.5775   -1.8968 C   0  0  0  0  0  0  0  0  0  0  0  0
   -2.6456    4.7657   -3.1934 C   0  0  0  0  0  0  0  0  0  0  0  0
   -1.8003    5.3256   -4.1465 C   0  0  0  0  0  0  0  0  0  0  0  0
   -0.5080    5.6836   -3.7971 C   0  0  0  0  0  0  0  0  0  0  0  0
   -2.2399    5.5167   -5.4191 O   0  0  0  0  0  0  0  0  0  0  0  0
   -1.3159    6.0915   -6.3453 C   0  0  0  0  0  0  0  0  0  0  0  0
   -1.9847    6.2285   -7.7145 C   0  0  0  0  0  0  0  0  0  0  0  0
   -0.9954    6.8440   -8.7061 C   0  0  0  0  0  0  0  0  0  0  0  0
   -1.6201    6.9719   -9.9849 O   0  0  0  0  0  0  0  0  0  0  0  0
   -0.7770    7.5396  -10.9895 C   0  0  0  0  0  0  0  0  0  0  0  0
   -3.9132    4.4084   -3.5325 O   0  0  0  0  0  0  0  0  0  0  0  0
   -4.7261    3.8444   -2.5014 C   0  0  0  0  0  0  0  0  0  0  0  0
    3.7207    5.1129   -2.0719 C   0  0  0  0  0  0  0  0  0  0  0  0
    4.1448    6.1068   -3.1550 C   0  0  1  0  0  0  0  0  0  0  0  0
    3.4570    6.9524   -3.1617 H   0  0  0  0  0  0  0  0  0  0  0  0
    5.5620    6.6046   -2.8636 C   0  0  2  0  0  0  0  0  0  0  0  0
    5.5815    7.0966   -1.8912 H   0  0  0  0  0  0  0  0  0  0  0  0
    5.9861    7.5985   -3.9467 C   0  0  0  0  0  0  0  0  0  0  0  0
    7.3396    8.2087   -3.5771 C   0  0  1  0  0  0  0  0  0  0  0  0
    7.2933    8.6090   -2.5643 H   0  0  0  0  0  0  0  0  0  0  0  0
    8.4224    7.1302   -3.6502 C   0  0  0  0  0  0  0  0  0  0  0  0
    8.4491    6.5290   -5.0569 C   0  0  0  0  0  0  0  0  0  0  0  0
    9.7842    7.7525   -3.3356 C   0  0  0  0  0  0  0  0  0  0  0  0
    7.6703    9.3187   -4.5413 C   0  0  0  0  0  0  0  0  0  0  0  0
    7.0087    9.4655   -5.5470 O   0  0  0  0  0  0  0  0  0  0  0  0
    8.7014   10.1482   -4.2859 N   0  0  0  0  0  0  0  0  0  0  0  0
    9.0556   11.1944   -5.2483 C   0  0  0  0  0  0  0  0  0  0  0  0
   10.2518   11.9891   -4.7206 C   0  0  0  0  0  0  0  0  0  0  0  0
    9.8865   12.6312   -3.3807 C   0  0  0  0  0  0  0  0  0  0  0  0
   11.4434   11.0491   -4.5276 C   0  0  0  0  0  0  0  0  0  0  0  0
   10.6161   13.0653   -5.7106 C   0  0  0  0  0  0  0  0  0  0  0  0
    9.9815   13.1849   -6.7372 O   0  0  0  0  0  0  0  0  0  0  0  0
   11.6472   13.8948   -5.4552 N   0  0  0  0  0  0  0  0  0  0  0  0
    6.4638    5.4961   -2.8549 O   0  0  0  0  0  0  0  0  0  0  0  0
    2.5176    1.5690   -0.8546 H   0  0  0  0  0  0  0  0  0  0  0  0
    2.4772    1.9393   -2.5952 H   0  0  0  0  0  0  0  0  0  0  0  0
    3.7897    2.5817   -1.5788 H   0  0  0  0  0  0  0  0  0  0  0  0
    0.8382    3.3411   -1.4277 H   0  0  0  0  0  0  0  0  0  0  0  0
    1.6498    5.0008    0.2757 H   0  0  0  0  0  0  0  0  0  0  0  0
    1.8214    3.3128    0.8136 H   0  0  0  0  0  0  0  0  0  0  0  0
    3.2445    4.2112    0.2340 H   0  0  0  0  0  0  0  0  0  0  0  0
    1.6750    6.7008   -2.7588 H   0  0  0  0  0  0  0  0  0  0  0  0
    1.3647    6.1928   -1.0814 H   0  0  0  0  0  0  0  0  0  0  0  0
   -0.5522    4.7854   -0.5451 H   0  0  0  0  0  0  0  0  0  0  0  0
   -2.8496    4.1462   -1.1544 H   0  0  0  0  0  0  0  0  0  0  0  0
    0.1514    6.1146   -4.5360 H   0  0  0  0  0  0  0  0  0  0  0  0
   -1.0103    7.0757   -5.9901 H   0  0  0  0  0  0  0  0  0  0  0  0
   -0.4401    5.4483   -6.4314 H   0  0  0  0  0  0  0  0  0  0  0  0
   -2.2903    5.2443   -8.0697 H   0  0  0  0  0  0  0  0  0  0  0  0
   -2.8604    6.8717   -7.6284 H   0  0  0  0  0  0  0  0  0  0  0  0
   -0.6898    7.8281   -8.3510 H   0  0  0  0  0  0  0  0  0  0  0  0
   -0.1196    6.2007   -8.7922 H   0  0  0  0  0  0  0  0  0  0  0  0
   -1.3244    7.6029  -11.9299 H   0  0  0  0  0  0  0  0  0  0  0  0
   -0.4669    8.5382  -10.6817 H   0  0  0  0  0  0  0  0  0  0  0  0
    0.1032    6.9108  -11.1230 H   0  0  0  0  0  0  0  0  0  0  0  0
   -4.2565    2.9357   -2.1248 H   0  0  0  0  0  0  0  0  0  0  0  0
   -4.8318    4.5626   -1.6884 H   0  0  0  0  0  0  0  0  0  0  0  0
   -5.7099    3.6046   -2.9047 H   0  0  0  0  0  0  0  0  0  0  0  0
    3.7978    5.5869   -1.0934 H   0  0  0  0  0  0  0  0  0  0  0  0
    4.3721    4.2396   -2.1050 H   0  0  0  0  0  0  0  0  0  0  0  0
    6.0698    7.0809   -4.9023 H   0  0  0  0  0  0  0  0  0  0  0  0
    5.2405    8.3896   -4.0261 H   0  0  0  0  0  0  0  0  0  0  0  0
    8.2044    6.3468   -2.9244 H   0  0  0  0  0  0  0  0  0  0  0  0
    8.5771    7.3254   -5.7900 H   0  0  0  0  0  0  0  0  0  0  0  0
    9.2783    5.8259   -5.1358 H   0  0  0  0  0  0  0  0  0  0  0  0
    7.5111    6.0074   -5.2470 H   0  0  0  0  0  0  0  0  0  0  0  0
    9.7577    8.2018   -2.3428 H   0  0  0  0  0  0  0  0  0  0  0  0
   10.5522    6.9795   -3.3642 H   0  0  0  0  0  0  0  0  0  0  0  0
   10.0129    8.5195   -4.0755 H   0  0  0  0  0  0  0  0  0  0  0  0
    9.2090   10.0526   -3.4648 H   0  0  0  0  0  0  0  0  0  0  0  0
    9.3158   10.7370   -6.2028 H   0  0  0  0  0  0  0  0  0  0  0  0
    8.2066   11.8641   -5.3858 H   0  0  0  0  0  0  0  0  0  0  0  0
    9.6230   11.8528   -2.6647 H   0  0  0  0  0  0  0  0  0  0  0  0
   10.7387   13.1973   -3.0048 H   0  0  0  0  0  0  0  0  0  0  0  0
    9.0376   13.3009   -3.5182 H   0  0  0  0  0  0  0  0  0  0  0  0
   11.7037   10.5916   -5.4822 H   0  0  0  0  0  0  0  0  0  0  0  0
   12.2957   11.6152   -4.1517 H   0  0  0  0  0  0  0  0  0  0  0  0
   11.1799   10.2707   -3.8116 H   0  0  0  0  0  0  0  0  0  0  0  0
   12.1548   13.7991   -4.6342 H   0  0  0  0  0  0  0  0  0  0  0  0
   11.8817   14.5875   -6.0925 H   0  0  0  0  0  0  0  0  0  0  0  0
    6.5506    5.0529   -3.7099 H   0  0  0  0  0  0  0  0  0  0  0  0
    4.6766    4.6032   -4.4568 H   0  0  0  0  0  0  0  0  0  0  0  0
    3.1713    5.2460   -4.7517 H   0  0  0  0  0  0  0  0  0  0  0  0
    4.1290    5.4619   -4.4797 N   0  3  0  0  0  0  0  0  0  0  0  0
    4.5376    6.1014   -5.1713 H   0  0  0  0  0  0  0  0  0  0  0  0
  1  2  1  0  0  0  0
  1 43  1  0  0  0  0
  1 44  1  0  0  0  0
  1 45  1  0  0  0  0
  2  3  1  0  0  0  0
  2  4  1  0  0  0  0
  2 46  1  0  0  0  0
  3 47  1  0  0  0  0
  3 48  1  0  0  0  0
  3 49  1  0  0  0  0
  4  5  1  6  0  0  0
  4  6  1  0  0  0  0
  4 21  1  0  0  0  0
  6  7  1  0  0  0  0
  6 50  1  0  0  0  0
  6 51  1  0  0  0  0
  7 12  2  0  0  0  0
  7  8  1  0  0  0  0
  8  9  2  0  0  0  0
  8 52  1  0  0  0  0
  9 10  1  0  0  0  0
  9 53  1  0  0  0  0
 10 11  2  0  0  0  0
 10 19  1  0  0  0  0
 11 12  1  0  0  0  0
 11 13  1  0  0  0  0
 12 54  1  0  0  0  0
 13 14  1  0  0  0  0
 14 15  1  0  0  0  0
 14 55  1  0  0  0  0
 14 56  1  0  0  0  0
 15 16  1  0  0  0  0
 15 57  1  0  0  0  0
 15 58  1  0  0  0  0
 16 17  1  0  0  0  0
 16 59  1  0  0  0  0
 16 60  1  0  0  0  0
 17 18  1  0  0  0  0
 18 61  1  0  0  0  0
 18 62  1  0  0  0  0
 18 63  1  0  0  0  0
 19 20  1  0  0  0  0
 20 64  1  0  0  0  0
 20 65  1  0  0  0  0
 20 66  1  0  0  0  0
 21 22  1  0  0  0  0
 21 67  1  0  0  0  0
 21 68  1  0  0  0  0
 22 23  1  6  0  0  0
 22 24  1  0  0  0  0
 22 92  1  0  0  0  0
 24 25  1  1  0  0  0
 24 26  1  0  0  0  0
 24 42  1  0  0  0  0
 26 27  1  0  0  0  0
 26 69  1  0  0  0  0
 26 70  1  0  0  0  0
 27 28  1  1  0  0  0
 27 29  1  0  0  0  0
 27 32  1  0  0  0  0
 29 30  1  0  0  0  0
 29 31  1  0  0  0  0
 29 71  1  0  0  0  0
 30 72  1  0  0  0  0
 30 73  1  0  0  0  0
 30 74  1  0  0  0  0
 31 75  1  0  0  0  0
 31 76  1  0  0  0  0
 31 77  1  0  0  0  0
 32 33  2  0  0  0  0
 32 34  1  0  0  0  0
 34 35  1  0  0  0  0
 34 78  1  0  0  0  0
 35 36  1  0  0  0  0
 35 79  1  0  0  0  0
 35 80  1  0  0  0  0
 36 37  1  0  0  0  0
 36 38  1  0  0  0  0
 36 39  1  0  0  0  0
 37 81  1  0  0  0  0
 37 82  1  0  0  0  0
 37 83  1  0  0  0  0
 38 84  1  0  0  0  0
 38 85  1  0  0  0  0
 38 86  1  0  0  0  0
 39 40  2  0  0  0  0
 39 41  1  0  0  0  0
 41 87  1  0  0  0  0
 41 88  1  0  0  0  0
 42 89  1  0  0  0  0
 90 92  1  0  0  0  0
 91 92  1  0  0  0  0
 92 93  1  0  0  0  0
M  CHG  1  92   1
M  END
$$$$
