ZINC00896634
 OpenBabel08292219463D

 34 36  0  0  1  0  0  0  0  0999 V2000
   -1.3201   -0.6354   -0.0785 C   0  0  0  0  0  0  0  0  0  0  0  0
   -0.0162    0.0292   -0.0122 N   0  0  0  0  0  0  0  0  0  0  0  0
    1.1111   -0.7775    0.0217 C   0  0  0  0  0  0  0  0  0  0  0  0
    1.0504   -1.9313    0.8060 C   0  0  0  0  0  0  0  0  0  0  0  0
    2.1297   -2.7830    0.8878 C   0  0  0  0  0  0  0  0  0  0  0  0
    3.2918   -2.5019    0.1862 C   0  0  0  0  0  0  0  0  0  0  0  0
    3.3697   -1.3686   -0.5911 C   0  0  0  0  0  0  0  0  0  0  0  0
    2.2789   -0.4902   -0.6818 C   0  0  0  0  0  0  0  0  0  0  0  0
    2.4331    0.7036   -1.5279 C   0  0  0  0  0  0  0  0  0  0  0  0
    1.9978    1.8767   -1.2314 N   0  0  0  0  0  0  0  0  0  0  0  0
    1.2789    2.1415    0.0149 C   0  0  1  0  0  0  0  0  0  0  0  0
    1.0586    3.2063    0.0902 H   0  0  0  0  0  0  0  0  0  0  0  0
   -0.0067    1.3601    0.0103 C   0  0  0  0  0  0  0  0  0  0  0  0
   -1.0616    1.9584    0.0224 O   0  0  0  0  0  0  0  0  0  0  0  0
    2.0810    1.7366    1.1261 O   0  0  0  0  0  0  0  0  0  0  0  0
    3.1426    0.5419   -2.8183 C   0  0  0  0  0  0  0  0  0  0  0  0
    3.7469    1.6413   -3.4277 C   0  0  0  0  0  0  0  0  0  0  0  0
    4.4116    1.4831   -4.6264 C   0  0  0  0  0  0  0  0  0  0  0  0
    4.4687    0.2396   -5.2301 C   0  0  0  0  0  0  0  0  0  0  0  0
    3.8663   -0.8536   -4.6334 C   0  0  0  0  0  0  0  0  0  0  0  0
    3.2040   -0.7093   -3.4316 C   0  0  0  0  0  0  0  0  0  0  0  0
    4.6493   -3.5791    0.2885 Cl  0  0  0  0  0  0  0  0  0  0  0  0
   -2.1100    0.1154   -0.0994 H   0  0  0  0  0  0  0  0  0  0  0  0
   -1.3726   -1.2433   -0.9817 H   0  0  0  0  0  0  0  0  0  0  0  0
   -1.4479   -1.2728    0.7964 H   0  0  0  0  0  0  0  0  0  0  0  0
    0.1484   -2.1575    1.3550 H   0  0  0  0  0  0  0  0  0  0  0  0
    2.0702   -3.6717    1.4986 H   0  0  0  0  0  0  0  0  0  0  0  0
    4.2775   -1.1534   -1.1351 H   0  0  0  0  0  0  0  0  0  0  0  0
    2.9267    2.2011    1.1906 H   0  0  0  0  0  0  0  0  0  0  0  0
    3.6988    2.6135   -2.9597 H   0  0  0  0  0  0  0  0  0  0  0  0
    4.8837    2.3328   -5.0971 H   0  0  0  0  0  0  0  0  0  0  0  0
    4.9860    0.1217   -6.1708 H   0  0  0  0  0  0  0  0  0  0  0  0
    3.9143   -1.8219   -5.1094 H   0  0  0  0  0  0  0  0  0  0  0  0
    2.7344   -1.5635   -2.9665 H   0  0  0  0  0  0  0  0  0  0  0  0
  1  2  1  0  0  0  0
  1 23  1  0  0  0  0
  1 24  1  0  0  0  0
  1 25  1  0  0  0  0
  2 13  1  0  0  0  0
  2  3  1  0  0  0  0
  3  8  2  0  0  0  0
  3  4  1  0  0  0  0
  4  5  2  0  0  0  0
  4 26  1  0  0  0  0
  5  6  1  0  0  0  0
  5 27  1  0  0  0  0
  6  7  2  0  0  0  0
  6 22  1  0  0  0  0
  7  8  1  0  0  0  0
  7 28  1  0  0  0  0
  8  9  1  0  0  0  0
  9 10  2  0  0  0  0
  9 16  1  0  0  0  0
 10 11  1  0  0  0  0
 11 12  1  1  0  0  0
 11 13  1  0  0  0  0
 11 15  1  0  0  0  0
 13 14  2  0  0  0  0
 15 29  1  0  0  0  0
 16 21  2  0  0  0  0
 16 17  1  0  0  0  0
 17 18  2  0  0  0  0
 17 30  1  0  0  0  0
 18 19  1  0  0  0  0
 18 31  1  0  0  0  0
 19 20  2  0  0  0  0
 19 32  1  0  0  0  0
 20 21  1  0  0  0  0
 20 33  1  0  0  0  0
 21 34  1  0  0  0  0
M  END
$$$$
