ZINC12503151
 OpenBabel08292219463D

 23 23  0  0  0  0  0  0  0  0999 V2000
   -1.1346    0.9241    0.3407 C   0  0  0  0  0  0  0  0  0  0  0  0
    0.0031   -0.0044    0.0020 C   0  0  0  0  0  0  0  0  0  0  0  0
    0.9224   -0.1509    0.7852 O   0  0  0  0  0  0  0  0  0  0  0  0
    0.0020   -0.6621   -1.1500 N   0  0  0  0  0  0  0  0  0  0  0  0
   -0.0802   -1.9949   -1.1578 C   0  0  0  0  0  0  0  0  0  0  0  0
    0.0027   -2.8388   -2.2117 N   0  0  0  0  0  0  0  0  0  0  0  0
   -0.1119   -4.1925   -1.9774 N   0  0  0  0  0  4  0  0  0  0  0  0
   -0.2944   -4.5840   -0.7486 C   0  0  0  0  0  0  0  0  0  0  0  0
   -0.3048   -3.0391    0.1407 S   0  0  0  0  0  0  0  0  0  0  0  0
   -0.4768   -6.2215   -0.1244 S   0  0  0  0  0  0  0  0  0  0  0  0
   -1.5476   -6.1834    0.8090 O   0  0  0  0  0  0  0  0  0  0  0  0
   -0.4786   -7.0877   -1.2508 O   0  0  0  0  0  0  0  0  0  0  0  0
    0.8919   -6.5715    0.7396 N   0  0  0  0  0  2  0  0  0  0  0  0
    0.2086   -2.3268   -3.5688 C   0  0  0  0  0  0  0  0  0  0  0  0
   -0.9060    1.9262   -0.0224 H   0  0  0  0  0  0  0  0  0  0  0  0
   -2.0490    0.5661   -0.1324 H   0  0  0  0  0  0  0  0  0  0  0  0
   -1.2715    0.9518    1.4217 H   0  0  0  0  0  0  0  0  0  0  0  0
    0.9868   -7.4364    1.1685 H   0  0  0  0  0  0  0  0  0  0  0  0
    1.2771   -2.2630   -3.7748 H   0  0  0  0  0  0  0  0  0  0  0  0
   -0.2601   -3.0003   -4.2862 H   0  0  0  0  0  0  0  0  0  0  0  0
   -0.2378   -1.3362   -3.6550 H   0  0  0  0  0  0  0  0  0  0  0  0
   -0.0588   -4.8327   -2.7042 H   0  0  0  0  0  0  0  0  0  0  0  0
    1.5651   -0.8215    0.5163 H   0  0  0  0  0  0  0  0  0  0  0  0
  1  2  1  0  0  0  0
  1 15  1  0  0  0  0
  1 16  1  0  0  0  0
  1 17  1  0  0  0  0
  2  3  2  0  0  0  0
  2  4  1  0  0  0  0
  3 23  1  0  0  0  0
  4  5  2  0  0  0  0
  5  9  1  0  0  0  0
  5  6  1  0  0  0  0
  6  7  1  0  0  0  0
  6 14  1  0  0  0  0
  7  8  2  0  0  0  0
  7 22  1  0  0  0  0
  8  9  1  0  0  0  0
  8 10  1  0  0  0  0
 10 11  2  0  0  0  0
 10 12  2  0  0  0  0
 10 13  1  0  0  0  0
 13 18  1  0  0  0  0
 14 19  1  0  0  0  0
 14 20  1  0  0  0  0
 14 21  1  0  0  0  0
M  END
$$$$
