ZINC13900201
 OpenBabel08292219463D

 47 49  0  0  1  0  0  0  0  0999 V2000
    6.0527    8.9746    2.0637 C   0  0  0  0  0  0  0  0  0  0  0  0
    6.1406    7.9244    2.9583 C   0  0  0  0  0  0  0  0  0  0  0  0
    5.8723    6.6349    2.5387 C   0  0  0  0  0  0  0  0  0  0  0  0
    5.5162    6.3955    1.2246 C   0  0  0  0  0  0  0  0  0  0  0  0
    5.4335    7.4451    0.3288 C   0  0  0  0  0  0  0  0  0  0  0  0
    5.6967    8.7353    0.7496 C   0  0  0  0  0  0  0  0  0  0  0  0
    5.2242    4.9897    0.7672 C   0  0  0  0  0  0  0  0  0  0  0  0
    3.7358    4.6904    0.9567 C   0  0  1  0  0  0  0  0  0  0  0  0
    3.1445    5.4470    0.4409 H   0  0  0  0  0  0  0  0  0  0  0  0
    3.4153    3.3107    0.3783 C   0  0  0  0  0  0  0  0  0  0  0  0
    1.9300    3.0671    0.4538 C   0  0  0  0  0  0  0  0  0  0  0  0
    1.1997    3.9137    0.9239 O   0  0  0  0  0  0  0  0  0  0  0  0
    1.4132    1.9085   -0.0012 N   0  0  0  0  0  0  0  0  0  0  0  0
   -0.0188    1.5374    0.0105 C   0  0  0  0  0  0  0  0  0  0  0  0
    0.0021   -0.0041    0.0020 C   0  0  1  0  0  0  0  0  0  0  0  0
    0.2758   -0.3723    0.9907 H   0  0  0  0  0  0  0  0  0  0  0  0
   -1.3193   -0.6013   -0.4139 C   0  0  0  0  0  0  0  0  0  0  0  0
   -1.6845   -0.2197   -1.8479 C   0  0  0  0  0  0  0  0  0  0  0  0
   -0.5727   -0.7252   -2.7747 C   0  0  0  0  0  0  0  0  0  0  0  0
    0.7192    0.0070   -2.4233 C   0  0  0  0  0  0  0  0  0  0  0  0
    1.1491   -0.2975   -0.9869 C   0  0  1  0  0  0  0  0  0  0  0  0
    1.5397   -1.3094   -0.8798 H   0  0  0  0  0  0  0  0  0  0  0  0
    2.1794    0.7980   -0.5941 C   0  0  0  0  0  0  0  0  0  0  0  0
    3.4030    4.7087    2.4264 C   0  0  0  0  0  0  0  0  0  0  0  0
    2.9553    3.7196    2.9568 O   0  0  0  0  0  0  0  0  0  0  0  0
    6.2627    9.9821    2.3914 H   0  0  0  0  0  0  0  0  0  0  0  0
    6.4191    8.1113    3.9848 H   0  0  0  0  0  0  0  0  0  0  0  0
    5.9413    5.8143    3.2375 H   0  0  0  0  0  0  0  0  0  0  0  0
    5.1596    7.2576   -0.6989 H   0  0  0  0  0  0  0  0  0  0  0  0
    5.6284    9.5558    0.0507 H   0  0  0  0  0  0  0  0  0  0  0  0
    5.8140    4.2864    1.3551 H   0  0  0  0  0  0  0  0  0  0  0  0
    5.4837    4.8893   -0.2868 H   0  0  0  0  0  0  0  0  0  0  0  0
    3.9385    2.5458    0.9520 H   0  0  0  0  0  0  0  0  0  0  0  0
    3.7379    3.2690   -0.6620 H   0  0  0  0  0  0  0  0  0  0  0  0
   -0.5205    1.9185   -0.8790 H   0  0  0  0  0  0  0  0  0  0  0  0
   -0.5034    1.9088    0.9134 H   0  0  0  0  0  0  0  0  0  0  0  0
   -1.2580   -1.6870   -0.3395 H   0  0  0  0  0  0  0  0  0  0  0  0
   -2.0990   -0.2425    0.2580 H   0  0  0  0  0  0  0  0  0  0  0  0
   -2.6317   -0.6841   -2.1223 H   0  0  0  0  0  0  0  0  0  0  0  0
   -1.7687    0.8639   -1.9302 H   0  0  0  0  0  0  0  0  0  0  0  0
   -0.4365   -1.7973   -2.6327 H   0  0  0  0  0  0  0  0  0  0  0  0
   -0.8408   -0.5242   -3.8120 H   0  0  0  0  0  0  0  0  0  0  0  0
    1.5070   -0.3087   -3.1072 H   0  0  0  0  0  0  0  0  0  0  0  0
    0.5626    1.0804   -2.5301 H   0  0  0  0  0  0  0  0  0  0  0  0
    2.8858    0.4012    0.1351 H   0  0  0  0  0  0  0  0  0  0  0  0
    2.7122    1.1437   -1.4800 H   0  0  0  0  0  0  0  0  0  0  0  0
    3.6038    5.8237    3.1462 O   0  0  0  0  0  1  0  0  0  0  0  0
  1  6  2  0  0  0  0
  1  2  1  0  0  0  0
  1 26  1  0  0  0  0
  2  3  2  0  0  0  0
  2 27  1  0  0  0  0
  3  4  1  0  0  0  0
  3 28  1  0  0  0  0
  4  5  2  0  0  0  0
  4  7  1  0  0  0  0
  5  6  1  0  0  0  0
  5 29  1  0  0  0  0
  6 30  1  0  0  0  0
  7  8  1  0  0  0  0
  7 31  1  0  0  0  0
  7 32  1  0  0  0  0
  8  9  1  6  0  0  0
  8 10  1  0  0  0  0
  8 24  1  0  0  0  0
 10 11  1  0  0  0  0
 10 33  1  0  0  0  0
 10 34  1  0  0  0  0
 11 12  2  0  0  0  0
 11 13  1  0  0  0  0
 13 23  1  0  0  0  0
 13 14  1  0  0  0  0
 14 15  1  0  0  0  0
 14 35  1  0  0  0  0
 14 36  1  0  0  0  0
 15 16  1  1  0  0  0
 15 21  1  0  0  0  0
 15 17  1  0  0  0  0
 17 18  1  0  0  0  0
 17 37  1  0  0  0  0
 17 38  1  0  0  0  0
 18 19  1  0  0  0  0
 18 39  1  0  0  0  0
 18 40  1  0  0  0  0
 19 20  1  0  0  0  0
 19 41  1  0  0  0  0
 19 42  1  0  0  0  0
 20 21  1  0  0  0  0
 20 43  1  0  0  0  0
 20 44  1  0  0  0  0
 21 22  1  1  0  0  0
 21 23  1  0  0  0  0
 23 45  1  0  0  0  0
 23 46  1  0  0  0  0
 24 25  2  0  0  0  0
 24 47  1  0  0  0  0
M  END
$$$$
