ZINC01909090
 OpenBabel08292219463D

 22 21  0  0  0  0  0  0  0  0999 V2000
   -0.0173    1.4248    0.0099 C   0  0  0  0  0  0  0  0  0  0  0  0
    0.0021   -0.0041    0.0020 O   0  0  0  0  0  0  0  0  0  0  0  0
   -1.1855   -0.6297    0.0100 C   0  0  0  0  0  0  0  0  0  0  0  0
   -2.2076    0.0145    0.0232 O   0  0  0  0  0  0  0  0  0  0  0  0
   -1.2439   -2.1355    0.0025 C   0  0  0  0  0  0  0  0  0  0  0  0
   -2.7051   -2.5893    0.0140 C   0  0  0  0  0  0  0  0  0  0  0  0
   -2.7635   -4.0951    0.0065 C   0  0  0  0  0  0  0  0  0  0  0  0
   -1.7420   -4.7389   -0.0068 O   0  0  0  0  0  0  0  0  0  0  0  0
   -4.0968   -4.7975    0.0154 C   0  0  0  0  0  0  0  0  0  0  0  0
   -3.8846   -6.2510    0.0056 N   0  3  0  0  0  0  0  0  0  0  0  0
    1.0053    1.8021    0.0021 H   0  0  0  0  0  0  0  0  0  0  0  0
   -0.5445    1.7859   -0.8732 H   0  0  0  0  0  0  0  0  0  0  0  0
   -0.5275    1.7763    0.9067 H   0  0  0  0  0  0  0  0  0  0  0  0
   -0.7531   -2.5137   -0.8943 H   0  0  0  0  0  0  0  0  0  0  0  0
   -0.7361   -2.5233    0.8856 H   0  0  0  0  0  0  0  0  0  0  0  0
   -3.1959   -2.2111    0.9107 H   0  0  0  0  0  0  0  0  0  0  0  0
   -3.2129   -2.2015   -0.8691 H   0  0  0  0  0  0  0  0  0  0  0  0
   -4.6492   -4.5170    0.9122 H   0  0  0  0  0  0  0  0  0  0  0  0
   -4.6662   -4.5074   -0.8676 H   0  0  0  0  0  0  0  0  0  0  0  0
   -3.3733   -6.5107   -0.8246 H   0  0  0  0  0  0  0  0  0  0  0  0
   -3.3575   -6.5195    0.8230 H   0  0  0  0  0  0  0  0  0  0  0  0
   -4.7773   -6.7213    0.0116 H   0  0  0  0  0  0  0  0  0  0  0  0
  1  2  1  0  0  0  0
  1 11  1  0  0  0  0
  1 12  1  0  0  0  0
  1 13  1  0  0  0  0
  2  3  1  0  0  0  0
  3  4  2  0  0  0  0
  3  5  1  0  0  0  0
  5  6  1  0  0  0  0
  5 14  1  0  0  0  0
  5 15  1  0  0  0  0
  6  7  1  0  0  0  0
  6 16  1  0  0  0  0
  6 17  1  0  0  0  0
  7  8  2  0  0  0  0
  7  9  1  0  0  0  0
  9 10  1  0  0  0  0
  9 18  1  0  0  0  0
  9 19  1  0  0  0  0
 10 20  1  0  0  0  0
 10 21  1  0  0  0  0
 10 22  1  0  0  0  0
M  CHG  1  10   1
M  END
$$$$
