ZINC00896449
 OpenBabel08292219463D

 62 64  0  0  1  0  0  0  0  0999 V2000
   -5.9279    0.7889   -5.5408 C   0  0  0  0  0  0  0  0  0  0  0  0
   -5.1996    1.5202   -4.4114 C   0  0  0  0  0  0  0  0  0  0  0  0
   -5.6060    0.9557   -3.1221 N   0  0  0  0  0  0  0  0  0  0  0  0
   -6.6846    1.5835   -2.3549 C   0  0  0  0  0  0  0  0  0  0  0  0
   -6.1262    2.7705   -1.5673 C   0  0  0  0  0  0  0  0  0  0  0  0
   -4.9877   -0.1414   -2.6419 C   0  0  0  0  0  0  0  0  0  0  0  0
   -4.0260   -0.5985   -3.2225 O   0  0  0  0  0  0  0  0  0  0  0  0
   -5.4912   -0.7999   -1.3834 C   0  0  2  0  0  0  0  0  0  0  0  0
   -6.5806   -0.7676   -1.3670 H   0  0  0  0  0  0  0  0  0  0  0  0
   -4.9399   -0.0580   -0.1631 C   0  0  0  0  0  0  0  0  0  0  0  0
   -2.8918    0.6858    0.9044 C   0  0  0  0  0  0  0  0  0  0  0  0
   -1.4027    0.8759    0.6320 C   0  0  0  0  0  0  0  0  0  0  0  0
   -0.7555   -0.4513    0.3292 C   0  0  0  0  0  0  0  0  0  0  0  0
    0.6276   -0.5401    0.3910 C   0  0  0  0  0  0  0  0  0  0  0  0
    1.2656   -1.7346    0.1088 C   0  0  0  0  0  0  0  0  0  0  0  0
    0.5128   -2.8527   -0.2387 C   0  0  0  0  0  0  0  0  0  0  0  0
   -0.8660   -2.7599   -0.2960 C   0  0  0  0  0  0  0  0  0  0  0  0
   -1.5016   -1.5586   -0.0154 C   0  0  0  0  0  0  0  0  0  0  0  0
   -3.0042   -1.5099   -0.0864 C   0  0  2  0  0  0  0  0  0  0  0  0
   -3.4204   -1.9730    0.8082 H   0  0  0  0  0  0  0  0  0  0  0  0
   -3.4920   -2.2946   -1.3062 C   0  0  0  0  0  0  0  0  0  0  0  0
   -5.0227   -2.2570   -1.3470 C   0  0  2  0  0  0  0  0  0  0  0  0
   -5.4233   -2.7460   -0.4590 H   0  0  0  0  0  0  0  0  0  0  0  0
   -5.4932   -2.9474   -2.5345 O   0  0  0  0  0  0  0  0  0  0  0  0
   -5.7365   -4.2624   -2.4187 C   0  0  0  0  0  0  0  0  0  0  0  0
   -5.5622   -4.8181   -1.3601 O   0  0  0  0  0  0  0  0  0  0  0  0
   -6.2272   -5.0456   -3.6091 C   0  0  0  0  0  0  0  0  0  0  0  0
    1.1303   -4.0313   -0.5203 O   0  0  0  0  0  0  0  0  0  0  0  0
    0.2928   -5.1355   -0.8686 C   0  0  0  0  0  0  0  0  0  0  0  0
    2.6217   -1.8162    0.1709 O   0  0  0  0  0  0  0  0  0  0  0  0
    3.3272   -0.6279    0.5344 C   0  0  0  0  0  0  0  0  0  0  0  0
   -6.9986    0.9785   -5.4654 H   0  0  0  0  0  0  0  0  0  0  0  0
   -5.5620    1.1491   -6.5023 H   0  0  0  0  0  0  0  0  0  0  0  0
   -5.7420   -0.2821   -5.4594 H   0  0  0  0  0  0  0  0  0  0  0  0
   -5.4546    2.5796   -4.4408 H   0  0  0  0  0  0  0  0  0  0  0  0
   -4.1233    1.4020   -4.5367 H   0  0  0  0  0  0  0  0  0  0  0  0
   -7.4601    1.9325   -3.0368 H   0  0  0  0  0  0  0  0  0  0  0  0
   -7.1095    0.8561   -1.6632 H   0  0  0  0  0  0  0  0  0  0  0  0
   -5.2266    2.4621   -1.0347 H   0  0  0  0  0  0  0  0  0  0  0  0
   -5.8818    3.5801   -2.2550 H   0  0  0  0  0  0  0  0  0  0  0  0
   -6.8724    3.1148   -0.8513 H   0  0  0  0  0  0  0  0  0  0  0  0
   -5.3182   -0.5235    0.7471 H   0  0  0  0  0  0  0  0  0  0  0  0
   -5.2567    0.9844   -0.1971 H   0  0  0  0  0  0  0  0  0  0  0  0
   -3.3864    1.6566    0.9398 H   0  0  0  0  0  0  0  0  0  0  0  0
   -3.0220    0.1738    1.8578 H   0  0  0  0  0  0  0  0  0  0  0  0
   -0.9213    1.3228    1.5018 H   0  0  0  0  0  0  0  0  0  0  0  0
   -1.2850    1.5393   -0.2248 H   0  0  0  0  0  0  0  0  0  0  0  0
    1.2096    0.3284    0.6615 H   0  0  0  0  0  0  0  0  0  0  0  0
   -1.4514   -3.6266   -0.5651 H   0  0  0  0  0  0  0  0  0  0  0  0
   -3.0921   -1.8429   -2.2140 H   0  0  0  0  0  0  0  0  0  0  0  0
   -3.1547   -3.3285   -1.2331 H   0  0  0  0  0  0  0  0  0  0  0  0
   -5.4933   -4.9833   -4.4125 H   0  0  0  0  0  0  0  0  0  0  0  0
   -6.3674   -6.0885   -3.3250 H   0  0  0  0  0  0  0  0  0  0  0  0
   -7.1758   -4.6313   -3.9506 H   0  0  0  0  0  0  0  0  0  0  0  0
   -0.3867   -5.3505   -0.0438 H   0  0  0  0  0  0  0  0  0  0  0  0
   -0.2842   -4.8870   -1.7593 H   0  0  0  0  0  0  0  0  0  0  0  0
    0.9104   -6.0111   -1.0683 H   0  0  0  0  0  0  0  0  0  0  0  0
    3.1140    0.1574   -0.1908 H   0  0  0  0  0  0  0  0  0  0  0  0
    3.0075   -0.3042    1.5249 H   0  0  0  0  0  0  0  0  0  0  0  0
    4.3981   -0.8304    0.5463 H   0  0  0  0  0  0  0  0  0  0  0  0
   -3.4610   -0.1146   -0.1997 N   0  3  1  0  0  0  0  0  0  0  0  0
   -3.1360    0.2716   -1.0938 H   0  0  0  0  0  0  0  0  0  0  0  0
  1  2  1  0  0  0  0
  1 32  1  0  0  0  0
  1 33  1  0  0  0  0
  1 34  1  0  0  0  0
  2  3  1  0  0  0  0
  2 35  1  0  0  0  0
  2 36  1  0  0  0  0
  3  4  1  0  0  0  0
  3  6  1  0  0  0  0
  4  5  1  0  0  0  0
  4 37  1  0  0  0  0
  4 38  1  0  0  0  0
  5 39  1  0  0  0  0
  5 40  1  0  0  0  0
  5 41  1  0  0  0  0
  6  7  2  0  0  0  0
  6  8  1  0  0  0  0
  8  9  1  1  0  0  0
  8 22  1  0  0  0  0
  8 10  1  0  0  0  0
 10 42  1  0  0  0  0
 10 43  1  0  0  0  0
 10 61  1  0  0  0  0
 11 12  1  0  0  0  0
 11 44  1  0  0  0  0
 11 45  1  0  0  0  0
 11 61  1  0  0  0  0
 12 13  1  0  0  0  0
 12 46  1  0  0  0  0
 12 47  1  0  0  0  0
 13 18  2  0  0  0  0
 13 14  1  0  0  0  0
 14 15  2  0  0  0  0
 14 48  1  0  0  0  0
 15 16  1  0  0  0  0
 15 30  1  0  0  0  0
 16 17  2  0  0  0  0
 16 28  1  0  0  0  0
 17 18  1  0  0  0  0
 17 49  1  0  0  0  0
 18 19  1  0  0  0  0
 19 20  1  1  0  0  0
 19 21  1  0  0  0  0
 19 61  1  0  0  0  0
 21 22  1  0  0  0  0
 21 50  1  0  0  0  0
 21 51  1  0  0  0  0
 22 23  1  1  0  0  0
 22 24  1  0  0  0  0
 24 25  1  0  0  0  0
 25 26  2  0  0  0  0
 25 27  1  0  0  0  0
 27 52  1  0  0  0  0
 27 53  1  0  0  0  0
 27 54  1  0  0  0  0
 28 29  1  0  0  0  0
 29 55  1  0  0  0  0
 29 56  1  0  0  0  0
 29 57  1  0  0  0  0
 30 31  1  0  0  0  0
 31 58  1  0  0  0  0
 31 59  1  0  0  0  0
 31 60  1  0  0  0  0
 61 62  1  6  0  0  0
M  CHG  1  61   1
M  END
$$$$
