ZINC00897258
 OpenBabel08292219463D

 50 51  0  0  1  0  0  0  0  0999 V2000
   -0.0290    1.5094    0.0317 C   0  0  0  0  0  0  0  0  0  0  0  0
   -0.0117   -0.0205    0.0353 C   0  0  2  0  0  0  0  0  0  0  0  0
    0.4959   -0.3802   -0.8597 H   0  0  0  0  0  0  0  0  0  0  0  0
   -1.4482   -0.5468    0.0532 C   0  0  0  0  0  0  0  0  0  0  0  0
   -1.4345   -2.0489   -0.0671 C   0  0  0  0  0  0  0  0  0  0  0  0
   -1.4722   -2.6416   -1.3156 C   0  0  0  0  0  0  0  0  0  0  0  0
   -1.4602   -4.0184   -1.4286 C   0  0  0  0  0  0  0  0  0  0  0  0
   -1.4097   -4.8064   -0.2879 C   0  0  0  0  0  0  0  0  0  0  0  0
   -1.3715   -4.2092    0.9638 C   0  0  0  0  0  0  0  0  0  0  0  0
   -1.3785   -2.8319    1.0711 C   0  0  0  0  0  0  0  0  0  0  0  0
   -1.3982   -6.1610   -0.3963 O   0  0  0  0  0  0  0  0  0  0  0  0
   -1.3455   -6.9088    0.8203 C   0  0  0  0  0  0  0  0  0  0  0  0
    0.7001   -0.4994    1.2278 N   0  3  0  0  0  0  0  0  0  0  0  0
    2.1103   -0.0950    1.1516 C   0  0  0  0  0  0  0  0  0  0  0  0
    2.8517   -0.5937    2.3936 C   0  0  2  0  0  0  0  0  0  0  0  0
    2.3441   -0.2340    3.2886 H   0  0  0  0  0  0  0  0  0  0  0  0
    4.2666   -0.0754    2.3760 C   0  0  0  0  0  0  0  0  0  0  0  0
    5.2197   -0.6988    1.5917 C   0  0  0  0  0  0  0  0  0  0  0  0
    6.5194   -0.2281    1.5717 C   0  0  0  0  0  0  0  0  0  0  0  0
    6.8703    0.8710    2.3389 C   0  0  0  0  0  0  0  0  0  0  0  0
    5.9106    1.4997    3.1288 C   0  0  0  0  0  0  0  0  0  0  0  0
    4.6071    1.0251    3.1393 C   0  0  0  0  0  0  0  0  0  0  0  0
    6.2597    2.6117    3.9066 N   0  0  0  0  0  0  0  0  0  0  0  0
    5.3730    3.6098    4.0916 C   0  0  0  0  0  0  0  0  0  0  0  0
    4.2466    3.5093    3.6532 O   0  0  0  0  0  0  0  0  0  0  0  0
    8.1485    1.3346    2.3210 O   0  0  0  0  0  0  0  0  0  0  0  0
    2.8678   -2.0226    2.3970 O   0  0  0  0  0  0  0  0  0  0  0  0
    0.9944    1.8843    0.0190 H   0  0  0  0  0  0  0  0  0  0  0  0
   -0.5572    1.8647   -0.8531 H   0  0  0  0  0  0  0  0  0  0  0  0
   -0.5366    1.8691    0.9268 H   0  0  0  0  0  0  0  0  0  0  0  0
   -1.9280   -0.2616    0.9895 H   0  0  0  0  0  0  0  0  0  0  0  0
   -2.0019   -0.1203   -0.7833 H   0  0  0  0  0  0  0  0  0  0  0  0
   -1.5115   -2.0278   -2.2034 H   0  0  0  0  0  0  0  0  0  0  0  0
   -1.4904   -4.4810   -2.4040 H   0  0  0  0  0  0  0  0  0  0  0  0
   -1.3322   -4.8204    1.8533 H   0  0  0  0  0  0  0  0  0  0  0  0
   -1.3443   -2.3665    2.0451 H   0  0  0  0  0  0  0  0  0  0  0  0
   -1.3416   -7.9746    0.5918 H   0  0  0  0  0  0  0  0  0  0  0  0
   -0.4379   -6.6510    1.3662 H   0  0  0  0  0  0  0  0  0  0  0  0
   -2.2166   -6.6712    1.4308 H   0  0  0  0  0  0  0  0  0  0  0  0
    0.2798   -0.0999    2.0535 H   0  0  0  0  0  0  0  0  0  0  0  0
    2.5644   -0.5266    0.2597 H   0  0  0  0  0  0  0  0  0  0  0  0
    2.1744    0.9920    1.1023 H   0  0  0  0  0  0  0  0  0  0  0  0
    4.9481   -1.5559    0.9933 H   0  0  0  0  0  0  0  0  0  0  0  0
    7.2615   -0.7175    0.9584 H   0  0  0  0  0  0  0  0  0  0  0  0
    3.8595    1.5130    3.7473 H   0  0  0  0  0  0  0  0  0  0  0  0
    7.1394    2.6632    4.3119 H   0  0  0  0  0  0  0  0  0  0  0  0
    5.6655    4.4990    4.6303 H   0  0  0  0  0  0  0  0  0  0  0  0
    8.3149    2.0034    1.6427 H   0  0  0  0  0  0  0  0  0  0  0  0
    3.3051   -2.4128    1.6278 H   0  0  0  0  0  0  0  0  0  0  0  0
    0.6408   -1.5056    1.2735 H   0  0  0  0  0  0  0  0  0  0  0  0
  1  2  1  0  0  0  0
  1 28  1  0  0  0  0
  1 29  1  0  0  0  0
  1 30  1  0  0  0  0
  2  3  1  6  0  0  0
  2  4  1  0  0  0  0
  2 13  1  0  0  0  0
  4  5  1  0  0  0  0
  4 31  1  0  0  0  0
  4 32  1  0  0  0  0
  5 10  2  0  0  0  0
  5  6  1  0  0  0  0
  6  7  2  0  0  0  0
  6 33  1  0  0  0  0
  7  8  1  0  0  0  0
  7 34  1  0  0  0  0
  8  9  2  0  0  0  0
  8 11  1  0  0  0  0
  9 10  1  0  0  0  0
  9 35  1  0  0  0  0
 10 36  1  0  0  0  0
 11 12  1  0  0  0  0
 12 37  1  0  0  0  0
 12 38  1  0  0  0  0
 12 39  1  0  0  0  0
 13 14  1  0  0  0  0
 13 40  1  0  0  0  0
 13 50  1  0  0  0  0
 14 15  1  0  0  0  0
 14 41  1  0  0  0  0
 14 42  1  0  0  0  0
 15 16  1  1  0  0  0
 15 17  1  0  0  0  0
 15 27  1  0  0  0  0
 17 22  2  0  0  0  0
 17 18  1  0  0  0  0
 18 19  2  0  0  0  0
 18 43  1  0  0  0  0
 19 20  1  0  0  0  0
 19 44  1  0  0  0  0
 20 21  2  0  0  0  0
 20 26  1  0  0  0  0
 21 22  1  0  0  0  0
 21 23  1  0  0  0  0
 22 45  1  0  0  0  0
 23 24  1  0  0  0  0
 23 46  1  0  0  0  0
 24 25  2  0  0  0  0
 24 47  1  0  0  0  0
 26 48  1  0  0  0  0
 27 49  1  0  0  0  0
M  CHG  1  13   1
M  END
$$$$
