ZINC00001681
 OpenBabel08292219463D

 40 41  0  0  1  0  0  0  0  0999 V2000
    3.5677    2.0652   -0.0209 C   0  0  0  0  0  0  0  0  0  0  0  0
    2.3672    1.1168   -0.0145 C   0  0  0  0  0  0  0  0  0  0  0  0
    1.1389    1.8910    0.0013 O   0  0  0  0  0  0  0  0  0  0  0  0
   -0.0143    1.2041    0.0087 C   0  0  0  0  0  0  0  0  0  0  0  0
    0.0021   -0.0041    0.0020 O   0  0  0  0  0  0  0  0  0  0  0  0
   -1.3295    1.9397    0.0189 C   0  0  2  0  0  0  0  0  0  0  0  0
   -1.4192    2.8101    1.2755 C   0  0  0  0  0  0  0  0  0  0  0  0
   -1.3795    1.9111    2.5150 C   0  0  0  0  0  0  0  0  0  0  0  0
   -2.4095    0.0867    1.2971 C   0  0  0  0  0  0  0  0  0  0  0  0
   -2.4806    0.9300    0.0221 C   0  0  0  0  0  0  0  0  0  0  0  0
   -2.5751    0.1785    3.7106 C   0  0  0  0  0  0  0  0  0  0  0  0
   -1.4281    2.8121   -1.2060 C   0  0  0  0  0  0  0  0  0  0  0  0
   -2.4513    2.6149   -2.1144 C   0  0  0  0  0  0  0  0  0  0  0  0
   -2.5445    3.4182   -3.2355 C   0  0  0  0  0  0  0  0  0  0  0  0
   -1.6086    4.4119   -3.4536 C   0  0  0  0  0  0  0  0  0  0  0  0
   -0.5824    4.6057   -2.5478 C   0  0  0  0  0  0  0  0  0  0  0  0
   -0.4922    3.8058   -1.4241 C   0  0  0  0  0  0  0  0  0  0  0  0
    3.5259    2.6984   -0.9071 H   0  0  0  0  0  0  0  0  0  0  0  0
    3.5429    2.6889    0.8727 H   0  0  0  0  0  0  0  0  0  0  0  0
    4.4898    1.4841   -0.0328 H   0  0  0  0  0  0  0  0  0  0  0  0
    2.4091    0.4836    0.8717 H   0  0  0  0  0  0  0  0  0  0  0  0
    2.3921    0.4932   -0.9082 H   0  0  0  0  0  0  0  0  0  0  0  0
   -0.5779    3.5027    1.2993 H   0  0  0  0  0  0  0  0  0  0  0  0
   -2.3533    3.3716    1.2633 H   0  0  0  0  0  0  0  0  0  0  0  0
   -1.4581    2.5258    3.4117 H   0  0  0  0  0  0  0  0  0  0  0  0
   -0.4392    1.3601    2.5336 H   0  0  0  0  0  0  0  0  0  0  0  0
   -3.2361   -0.6236    1.3093 H   0  0  0  0  0  0  0  0  0  0  0  0
   -1.4643   -0.4555    1.3217 H   0  0  0  0  0  0  0  0  0  0  0  0
   -3.4314    1.4620   -0.0098 H   0  0  0  0  0  0  0  0  0  0  0  0
   -2.3971    0.2803   -0.8491 H   0  0  0  0  0  0  0  0  0  0  0  0
   -1.6814   -0.4384    3.8039 H   0  0  0  0  0  0  0  0  0  0  0  0
   -2.6420    0.8527    4.5645 H   0  0  0  0  0  0  0  0  0  0  0  0
   -3.4571   -0.4613    3.6829 H   0  0  0  0  0  0  0  0  0  0  0  0
   -3.1799    1.8356   -1.9463 H   0  0  0  0  0  0  0  0  0  0  0  0
   -3.3460    3.2666   -3.9433 H   0  0  0  0  0  0  0  0  0  0  0  0
   -1.6789    5.0366   -4.3317 H   0  0  0  0  0  0  0  0  0  0  0  0
    0.1490    5.3818   -2.7184 H   0  0  0  0  0  0  0  0  0  0  0  0
    0.3097    3.9569   -0.7166 H   0  0  0  0  0  0  0  0  0  0  0  0
   -2.5265    0.9792    2.4698 N   0  3  1  0  0  0  0  0  0  0  0  0
   -3.3940    1.5225    2.3895 H   0  0  0  0  0  0  0  0  0  0  0  0
  1  2  1  0  0  0  0
  1 18  1  0  0  0  0
  1 19  1  0  0  0  0
  1 20  1  0  0  0  0
  2  3  1  0  0  0  0
  2 21  1  0  0  0  0
  2 22  1  0  0  0  0
  3  4  1  0  0  0  0
  4  5  2  0  0  0  0
  6  4  1  6  0  0  0
  6 10  1  0  0  0  0
  6  7  1  0  0  0  0
  6 12  1  0  0  0  0
  7  8  1  0  0  0  0
  7 23  1  0  0  0  0
  7 24  1  0  0  0  0
  8 25  1  0  0  0  0
  8 26  1  0  0  0  0
  8 39  1  0  0  0  0
  9 10  1  0  0  0  0
  9 27  1  0  0  0  0
  9 28  1  0  0  0  0
  9 39  1  0  0  0  0
 10 29  1  0  0  0  0
 10 30  1  0  0  0  0
 11 31  1  0  0  0  0
 11 32  1  0  0  0  0
 11 33  1  0  0  0  0
 11 39  1  0  0  0  0
 12 17  2  0  0  0  0
 12 13  1  0  0  0  0
 13 14  2  0  0  0  0
 13 34  1  0  0  0  0
 14 15  1  0  0  0  0
 14 35  1  0  0  0  0
 15 16  2  0  0  0  0
 15 36  1  0  0  0  0
 16 17  1  0  0  0  0
 16 37  1  0  0  0  0
 17 38  1  0  0  0  0
 39 40  1  6  0  0  0
M  CHG  1  39   1
M  END
$$$$
