ZINC00537822
 OpenBabel08292219463D

 50 52  0  0  1  0  0  0  0  0999 V2000
   -0.0169    1.3952    0.0097 C   0  0  0  0  0  0  0  0  0  0  0  0
    1.1683    2.0970    0.0022 C   0  0  0  0  0  0  0  0  0  0  0  0
    2.3789    1.4198   -0.0130 C   0  0  0  0  0  0  0  0  0  0  0  0
    2.4047    0.0329   -0.0212 C   0  0  0  0  0  0  0  0  0  0  0  0
    1.2267   -0.6810   -0.0142 C   0  0  0  0  0  0  0  0  0  0  0  0
    0.0021   -0.0041    0.0020 C   0  0  0  0  0  0  0  0  0  0  0  0
   -1.2591   -0.7596    0.0105 C   0  0  0  0  0  0  0  0  0  0  0  0
   -2.3189   -0.1702    0.0242 O   0  0  0  0  0  0  0  0  0  0  0  0
   -1.2348   -2.2664    0.0022 C   0  0  0  0  0  0  0  0  0  0  0  0
   -2.6689   -2.7996    0.0135 C   0  0  0  0  0  0  0  0  0  0  0  0
   -2.6443   -4.3293    0.0051 C   0  0  0  0  0  0  0  0  0  0  0  0
   -4.0211   -4.8413    0.0160 N   0  3  2  0  0  0  0  0  0  0  0  0
   -4.6726   -4.4620    1.2755 C   0  0  0  0  0  0  0  0  0  0  0  0
   -6.1318   -4.9225    1.2582 C   0  0  0  0  0  0  0  0  0  0  0  0
   -6.1791   -6.4445    1.0954 C   0  0  2  0  0  0  0  0  0  0  0  0
   -5.4322   -6.8346   -0.1834 C   0  0  0  0  0  0  0  0  0  0  0  0
   -3.9990   -6.3033   -0.1127 C   0  0  0  0  0  0  0  0  0  0  0  0
   -7.6135   -6.8966    0.9991 C   0  0  0  0  0  0  0  0  0  0  0  0
   -8.5661   -6.0599    0.4482 C   0  0  0  0  0  0  0  0  0  0  0  0
   -9.8818   -6.4740    0.3596 C   0  0  0  0  0  0  0  0  0  0  0  0
  -10.2453   -7.7262    0.8224 C   0  0  0  0  0  0  0  0  0  0  0  0
   -9.2914   -8.5631    1.3735 C   0  0  0  0  0  0  0  0  0  0  0  0
   -7.9750   -8.1501    1.4564 C   0  0  0  0  0  0  0  0  0  0  0  0
  -11.8977   -8.2468    0.7119 Cl  0  0  0  0  0  0  0  0  0  0  0  0
   -5.5554   -7.0652    2.2213 O   0  0  0  0  0  0  0  0  0  0  0  0
    3.5378    2.1141   -0.0204 F   0  0  0  0  0  0  0  0  0  0  0  0
   -0.9587    1.9236    0.0260 H   0  0  0  0  0  0  0  0  0  0  0  0
    1.1551    3.1769    0.0077 H   0  0  0  0  0  0  0  0  0  0  0  0
    3.3506   -0.4883   -0.0334 H   0  0  0  0  0  0  0  0  0  0  0  0
    1.2482   -1.7608   -0.0213 H   0  0  0  0  0  0  0  0  0  0  0  0
   -0.7241   -2.6166   -0.8948 H   0  0  0  0  0  0  0  0  0  0  0  0
   -0.7064   -2.6261    0.8850 H   0  0  0  0  0  0  0  0  0  0  0  0
   -3.1796   -2.4493    0.9105 H   0  0  0  0  0  0  0  0  0  0  0  0
   -3.1973   -2.4398   -0.8693 H   0  0  0  0  0  0  0  0  0  0  0  0
   -2.1335   -4.6796   -0.8919 H   0  0  0  0  0  0  0  0  0  0  0  0
   -2.1158   -4.6891    0.8880 H   0  0  0  0  0  0  0  0  0  0  0  0
   -4.1530   -4.9339    2.1093 H   0  0  0  0  0  0  0  0  0  0  0  0
   -4.6353   -3.3788    1.3915 H   0  0  0  0  0  0  0  0  0  0  0  0
   -6.6132   -4.6415    2.1949 H   0  0  0  0  0  0  0  0  0  0  0  0
   -6.6524   -4.4509    0.4248 H   0  0  0  0  0  0  0  0  0  0  0  0
   -5.4137   -7.9204   -0.2771 H   0  0  0  0  0  0  0  0  0  0  0  0
   -5.9384   -6.4027   -1.0467 H   0  0  0  0  0  0  0  0  0  0  0  0
   -3.4644   -6.5795   -1.0215 H   0  0  0  0  0  0  0  0  0  0  0  0
   -3.4937   -6.7360    0.7507 H   0  0  0  0  0  0  0  0  0  0  0  0
   -8.2824   -5.0823    0.0874 H   0  0  0  0  0  0  0  0  0  0  0  0
  -10.6260   -5.8201   -0.0704 H   0  0  0  0  0  0  0  0  0  0  0  0
   -9.5746   -9.5405    1.7352 H   0  0  0  0  0  0  0  0  0  0  0  0
   -7.2294   -8.8051    1.8823 H   0  0  0  0  0  0  0  0  0  0  0  0
   -5.5495   -8.0314    2.1846 H   0  0  0  0  0  0  0  0  0  0  0  0
   -4.5327   -4.4442   -0.7578 H   0  0  0  0  0  0  0  0  0  0  0  0
  1  6  2  0  0  0  0
  1  2  1  0  0  0  0
  1 27  1  0  0  0  0
  2  3  2  0  0  0  0
  2 28  1  0  0  0  0
  3  4  1  0  0  0  0
  3 26  1  0  0  0  0
  4  5  2  0  0  0  0
  4 29  1  0  0  0  0
  5  6  1  0  0  0  0
  5 30  1  0  0  0  0
  6  7  1  0  0  0  0
  7  8  2  0  0  0  0
  7  9  1  0  0  0  0
  9 10  1  0  0  0  0
  9 31  1  0  0  0  0
  9 32  1  0  0  0  0
 10 11  1  0  0  0  0
 10 33  1  0  0  0  0
 10 34  1  0  0  0  0
 11 12  1  0  0  0  0
 11 35  1  0  0  0  0
 11 36  1  0  0  0  0
 12 17  1  0  0  0  0
 12 13  1  0  0  0  0
 12 50  1  6  0  0  0
 13 14  1  0  0  0  0
 13 37  1  0  0  0  0
 13 38  1  0  0  0  0
 14 15  1  0  0  0  0
 14 39  1  0  0  0  0
 14 40  1  0  0  0  0
 15 16  1  0  0  0  0
 15 18  1  0  0  0  0
 15 25  1  1  0  0  0
 16 17  1  0  0  0  0
 16 41  1  0  0  0  0
 16 42  1  0  0  0  0
 17 43  1  0  0  0  0
 17 44  1  0  0  0  0
 18 23  2  0  0  0  0
 18 19  1  0  0  0  0
 19 20  2  0  0  0  0
 19 45  1  0  0  0  0
 20 21  1  0  0  0  0
 20 46  1  0  0  0  0
 21 22  2  0  0  0  0
 21 24  1  0  0  0  0
 22 23  1  0  0  0  0
 22 47  1  0  0  0  0
 23 48  1  0  0  0  0
 25 49  1  0  0  0  0
M  CHG  1  12   1
M  END
$$$$
