ZINC35024383
 OpenBabel08292219463D

 37 39  0  0  1  0  0  0  0  0999 V2000
   -0.0167    1.3781    0.0096 C   0  0  0  0  0  0  0  0  0  0  0  0
    1.1709    2.0855    0.0021 C   0  0  0  0  0  0  0  0  0  0  0  0
    2.3773    1.4107   -0.0130 C   0  0  0  0  0  0  0  0  0  0  0  0
    2.3960    0.0285   -0.0201 C   0  0  0  0  0  0  0  0  0  0  0  0
    1.2084   -0.6789   -0.0117 C   0  0  0  0  0  0  0  0  0  0  0  0
    0.0021   -0.0041    0.0020 C   0  0  0  0  0  0  0  0  0  0  0  0
    3.7112   -0.7071   -0.0376 C   0  0  2  0  0  0  0  0  0  0  0  0
    4.5034   -0.0434    0.3089 H   0  0  0  0  0  0  0  0  0  0  0  0
    4.0144   -1.1607   -1.4423 C   0  0  0  0  0  0  0  0  0  0  0  0
    3.7969   -2.3081   -1.7694 O   0  0  0  0  0  0  0  0  0  0  0  0
    4.5274   -0.2912   -2.3353 N   0  0  0  0  0  0  0  0  0  0  0  0
    4.8222   -0.7321   -3.7009 C   0  0  1  0  0  0  0  0  0  0  0  0
    4.2141   -1.5837   -4.0062 H   0  0  0  0  0  0  0  0  0  0  0  0
    4.8168    0.4023   -4.7120 C   0  0  2  0  0  0  0  0  0  0  0  0
    4.3455    0.1855   -5.6706 H   0  0  0  0  0  0  0  0  0  0  0  0
    6.2990    0.2326   -4.6393 N   0  0  0  0  0  0  0  0  0  0  0  0
    6.2993   -0.9300   -3.9588 C   0  0  0  0  0  0  0  0  0  0  0  0
    7.1247   -1.7723   -3.6750 O   0  0  0  0  0  0  0  0  0  0  0  0
    7.2651    1.1754   -5.0560 C   0  0  0  0  0  0  0  0  0  0  0  0
    6.9370    2.4537   -5.1994 C   0  0  0  0  0  0  0  0  0  0  0  0
    5.5995    3.0951   -5.0214 C   0  0  0  0  0  0  0  0  0  0  0  0
    4.4530    2.0571   -4.0347 S   0  0  0  0  0  0  0  0  0  0  0  0
    8.2309    3.5189   -5.6520 Cl  0  0  0  0  0  0  0  0  0  0  0  0
    8.6399    0.7389   -5.3317 C   0  0  0  0  0  0  0  0  0  0  0  0
    9.4795    1.5529   -5.6930 O   0  0  0  0  0  0  0  0  0  0  0  0
    8.9461   -0.4388   -5.2003 O   0  0  0  0  0  1  0  0  0  0  0  0
    3.6299   -1.8765    0.8478 N   0  0  0  0  0  0  0  0  0  0  0  0
   -0.9591    1.9053    0.0259 H   0  0  0  0  0  0  0  0  0  0  0  0
    1.1563    3.1654    0.0076 H   0  0  0  0  0  0  0  0  0  0  0  0
    3.3051    1.9634   -0.0196 H   0  0  0  0  0  0  0  0  0  0  0  0
    1.2231   -1.7588   -0.0176 H   0  0  0  0  0  0  0  0  0  0  0  0
   -0.9258   -0.5567    0.0082 H   0  0  0  0  0  0  0  0  0  0  0  0
    4.7014    0.6266   -2.0737 H   0  0  0  0  0  0  0  0  0  0  0  0
    5.7300    4.0554   -4.5225 H   0  0  0  0  0  0  0  0  0  0  0  0
    5.1538    3.2640   -6.0017 H   0  0  0  0  0  0  0  0  0  0  0  0
    3.4913   -1.5951    1.8068 H   0  0  0  0  0  0  0  0  0  0  0  0
    2.9022   -2.5076    0.5473 H   0  0  0  0  0  0  0  0  0  0  0  0
  1  6  2  0  0  0  0
  1  2  1  0  0  0  0
  1 28  1  0  0  0  0
  2  3  2  0  0  0  0
  2 29  1  0  0  0  0
  3  4  1  0  0  0  0
  3 30  1  0  0  0  0
  4  5  2  0  0  0  0
  4  7  1  0  0  0  0
  5  6  1  0  0  0  0
  5 31  1  0  0  0  0
  6 32  1  0  0  0  0
  7  8  1  1  0  0  0
  7  9  1  0  0  0  0
  7 27  1  0  0  0  0
  9 10  2  0  0  0  0
  9 11  1  0  0  0  0
 11 12  1  0  0  0  0
 11 33  1  0  0  0  0
 12 13  1  6  0  0  0
 12 17  1  0  0  0  0
 12 14  1  0  0  0  0
 14 15  1  6  0  0  0
 14 22  1  0  0  0  0
 14 16  1  0  0  0  0
 16 17  1  0  0  0  0
 16 19  1  0  0  0  0
 17 18  2  0  0  0  0
 19 20  2  0  0  0  0
 19 24  1  0  0  0  0
 20 21  1  0  0  0  0
 20 23  1  0  0  0  0
 21 22  1  0  0  0  0
 21 34  1  0  0  0  0
 21 35  1  0  0  0  0
 24 25  2  0  0  0  0
 24 26  1  0  0  0  0
 27 36  1  0  0  0  0
 27 37  1  0  0  0  0
M  END
$$$$
