ZINC00601293
 OpenBabel08292219463D

 53 56  0  0  0  0  0  0  0  0999 V2000
    0.0758    1.2537   -0.8714 C   0  0  0  0  0  0  0  0  0  0  0  0
   -0.1862    1.8662   -2.0857 C   0  0  0  0  0  0  0  0  0  0  0  0
   -0.2230    1.1217   -3.2454 C   0  0  0  0  0  0  0  0  0  0  0  0
    0.0033   -0.2531   -3.2068 C   0  0  0  0  0  0  0  0  0  0  0  0
    0.2685   -0.8715   -1.9838 C   0  0  0  0  0  0  0  0  0  0  0  0
    0.3024   -0.1043   -0.8157 C   0  0  0  0  0  0  0  0  0  0  0  0
    0.5177   -2.3223   -1.8933 C   0  0  0  0  0  0  0  0  0  0  0  0
    0.3137   -2.9429   -0.7215 C   0  0  0  0  0  0  0  0  0  0  0  0
    0.1053   -4.4349   -0.6853 C   0  0  0  0  0  0  0  0  0  0  0  0
   -1.1725   -4.7527    0.0939 C   0  0  0  0  0  0  0  0  0  0  0  0
   -1.3756   -6.2071    0.1292 N   0  3  0  0  0  0  0  0  0  0  0  0
   -0.2879   -6.8348    0.8909 C   0  0  0  0  0  0  0  0  0  0  0  0
   -0.4888   -8.3516    0.9120 C   0  0  0  0  0  0  0  0  0  0  0  0
   -1.7856   -8.6626    1.5299 N   0  0  0  0  0  0  0  0  0  0  0  0
   -2.8827   -8.0202    0.7923 C   0  0  0  0  0  0  0  0  0  0  0  0
   -2.6620   -6.5061    0.7722 C   0  0  0  0  0  0  0  0  0  0  0  0
   -1.9911  -10.1143    1.6203 C   0  0  0  0  0  0  0  0  0  0  0  0
   -1.1456  -10.6789    2.7636 C   0  0  0  0  0  0  0  0  0  0  0  0
   -1.5808  -10.1140    4.0019 O   0  0  0  0  0  0  0  0  0  0  0  0
    0.9831   -3.1142   -3.0472 C   0  0  0  0  0  0  0  0  0  0  0  0
    1.6452   -4.3235   -2.8154 C   0  0  0  0  0  0  0  0  0  0  0  0
    2.0928   -5.0835   -3.8753 C   0  0  0  0  0  0  0  0  0  0  0  0
    1.8884   -4.6514   -5.1764 C   0  0  0  0  0  0  0  0  0  0  0  0
    1.2358   -3.4614   -5.4182 C   0  0  0  0  0  0  0  0  0  0  0  0
    0.7767   -2.6818   -4.3581 C   0  0  0  0  0  0  0  0  0  0  0  0
   -0.0534   -1.1714   -4.7047 S   0  0  0  0  0  0  0  0  0  0  0  0
    2.9142   -6.5840   -3.5797 Cl  0  0  0  0  0  0  0  0  0  0  0  0
    0.1070    1.8426    0.0334 H   0  0  0  0  0  0  0  0  0  0  0  0
   -0.3628    2.9309   -2.1241 H   0  0  0  0  0  0  0  0  0  0  0  0
   -0.4285    1.6061   -4.1885 H   0  0  0  0  0  0  0  0  0  0  0  0
    0.5063   -0.5776    0.1334 H   0  0  0  0  0  0  0  0  0  0  0  0
    0.2988   -2.3731    0.1959 H   0  0  0  0  0  0  0  0  0  0  0  0
    0.0139   -4.8138   -1.7032 H   0  0  0  0  0  0  0  0  0  0  0  0
    0.9564   -4.9089   -0.1962 H   0  0  0  0  0  0  0  0  0  0  0  0
   -1.0811   -4.3738    1.1118 H   0  0  0  0  0  0  0  0  0  0  0  0
   -2.0236   -4.2787   -0.3952 H   0  0  0  0  0  0  0  0  0  0  0  0
    0.6671   -6.6013    0.4202 H   0  0  0  0  0  0  0  0  0  0  0  0
   -0.2924   -6.4534    1.9121 H   0  0  0  0  0  0  0  0  0  0  0  0
   -0.4708   -8.7351   -0.1081 H   0  0  0  0  0  0  0  0  0  0  0  0
    0.3101   -8.8163    1.4899 H   0  0  0  0  0  0  0  0  0  0  0  0
   -2.9040   -8.3982   -0.2298 H   0  0  0  0  0  0  0  0  0  0  0  0
   -3.8302   -8.2432    1.2828 H   0  0  0  0  0  0  0  0  0  0  0  0
   -2.6543   -6.1265    1.7939 H   0  0  0  0  0  0  0  0  0  0  0  0
   -3.4671   -6.0290    0.2134 H   0  0  0  0  0  0  0  0  0  0  0  0
   -3.0443  -10.3210    1.8109 H   0  0  0  0  0  0  0  0  0  0  0  0
   -1.6929  -10.5826    0.6822 H   0  0  0  0  0  0  0  0  0  0  0  0
   -1.2591  -11.7624    2.7987 H   0  0  0  0  0  0  0  0  0  0  0  0
   -0.0976  -10.4285    2.5984 H   0  0  0  0  0  0  0  0  0  0  0  0
   -1.0876  -10.4277    4.7722 H   0  0  0  0  0  0  0  0  0  0  0  0
    1.8070   -4.6633   -1.8031 H   0  0  0  0  0  0  0  0  0  0  0  0
    2.2415   -5.2493   -6.0036 H   0  0  0  0  0  0  0  0  0  0  0  0
    1.0803   -3.1311   -6.4346 H   0  0  0  0  0  0  0  0  0  0  0  0
   -1.3785   -6.5691   -0.8127 H   0  0  0  0  0  0  0  0  0  0  0  0
  1  6  2  0  0  0  0
  1  2  1  0  0  0  0
  1 28  1  0  0  0  0
  2  3  2  0  0  0  0
  2 29  1  0  0  0  0
  3  4  1  0  0  0  0
  3 30  1  0  0  0  0
  4 26  1  0  0  0  0
  4  5  2  0  0  0  0
  5  6  1  0  0  0  0
  5  7  1  0  0  0  0
  6 31  1  0  0  0  0
  7  8  2  0  0  0  0
  7 20  1  0  0  0  0
  8  9  1  0  0  0  0
  8 32  1  0  0  0  0
  9 10  1  0  0  0  0
  9 33  1  0  0  0  0
  9 34  1  0  0  0  0
 10 11  1  0  0  0  0
 10 35  1  0  0  0  0
 10 36  1  0  0  0  0
 11 16  1  0  0  0  0
 11 12  1  0  0  0  0
 11 53  1  0  0  0  0
 12 13  1  0  0  0  0
 12 37  1  0  0  0  0
 12 38  1  0  0  0  0
 13 14  1  0  0  0  0
 13 39  1  0  0  0  0
 13 40  1  0  0  0  0
 14 15  1  0  0  0  0
 14 17  1  0  0  0  0
 15 16  1  0  0  0  0
 15 41  1  0  0  0  0
 15 42  1  0  0  0  0
 16 43  1  0  0  0  0
 16 44  1  0  0  0  0
 17 18  1  0  0  0  0
 17 45  1  0  0  0  0
 17 46  1  0  0  0  0
 18 19  1  0  0  0  0
 18 47  1  0  0  0  0
 18 48  1  0  0  0  0
 19 49  1  0  0  0  0
 20 25  2  0  0  0  0
 20 21  1  0  0  0  0
 21 22  2  0  0  0  0
 21 50  1  0  0  0  0
 22 23  1  0  0  0  0
 22 27  1  0  0  0  0
 23 24  2  0  0  0  0
 23 51  1  0  0  0  0
 24 25  1  0  0  0  0
 24 52  1  0  0  0  0
 25 26  1  0  0  0  0
M  CHG  1  11   1
M  END
$$$$
