ZINC00005626
 OpenBabel08292219463D

 29 30  0  0  1  0  0  0  0  0999 V2000
   -0.7527    1.5927   -1.2315 C   0  0  0  0  0  0  0  0  0  0  0  0
   -0.0127    1.0858    0.0080 C   0  0  2  0  0  0  0  0  0  0  0  0
    0.0021   -0.0041    0.0020 H   0  0  0  0  0  0  0  0  0  0  0  0
   -0.7181    1.5718    1.2479 C   0  0  0  0  0  0  0  0  0  0  0  0
   -2.1010    2.7621    2.5807 C   0  0  0  0  0  0  0  0  0  0  0  0
   -1.3331    1.7516    3.4568 C   0  0  0  0  0  0  0  0  0  0  0  0
   -0.4792    1.0491    2.4837 N   0  0  0  0  0  0  0  0  0  0  0  0
    1.3279    1.5804   -0.0021 O   0  0  0  0  0  0  0  0  0  0  0  0
    2.2642    0.8131   -0.6209 C   0  0  0  0  0  0  0  0  0  0  0  0
    2.9649   -0.1444    0.0991 C   0  0  0  0  0  0  0  0  0  0  0  0
    3.9121   -0.9276   -0.5342 C   0  0  0  0  0  0  0  0  0  0  0  0
    4.1704   -0.7491   -1.8807 C   0  0  0  0  0  0  0  0  0  0  0  0
    3.4780    0.2080   -2.5992 C   0  0  0  0  0  0  0  0  0  0  0  0
    2.5253    0.9898   -1.9725 C   0  0  0  0  0  0  0  0  0  0  0  0
    1.6560    2.1908   -2.8756 Cl  0  0  0  0  0  0  0  0  0  0  0  0
    2.6467   -0.3639    1.7916 Cl  0  0  0  0  0  0  0  0  0  0  0  0
   -0.2425    1.2411   -2.1283 H   0  0  0  0  0  0  0  0  0  0  0  0
   -1.7753    1.2154   -1.2238 H   0  0  0  0  0  0  0  0  0  0  0  0
   -0.7675    2.6825   -1.2255 H   0  0  0  0  0  0  0  0  0  0  0  0
   -3.1733    2.5722    2.6279 H   0  0  0  0  0  0  0  0  0  0  0  0
   -1.8803    3.7833    2.8915 H   0  0  0  0  0  0  0  0  0  0  0  0
   -2.0219    1.0567    3.9372 H   0  0  0  0  0  0  0  0  0  0  0  0
   -0.7257    2.2690    4.1994 H   0  0  0  0  0  0  0  0  0  0  0  0
    0.1459    0.3360    2.6875 H   0  0  0  0  0  0  0  0  0  0  0  0
    4.4540   -1.6764    0.0244 H   0  0  0  0  0  0  0  0  0  0  0  0
    4.9142   -1.3586   -2.3722 H   0  0  0  0  0  0  0  0  0  0  0  0
    3.6813    0.3447   -3.6510 H   0  0  0  0  0  0  0  0  0  0  0  0
   -1.5888    2.5165    1.2221 N   0  0  0  0  0  4  0  0  0  0  0  0
   -1.8835    3.0244    0.3798 H   0  0  0  0  0  0  0  0  0  0  0  0
  1  2  1  0  0  0  0
  1 17  1  0  0  0  0
  1 18  1  0  0  0  0
  1 19  1  0  0  0  0
  2  3  1  6  0  0  0
  2  4  1  0  0  0  0
  2  8  1  0  0  0  0
  4  7  1  0  0  0  0
  4 28  2  0  0  0  0
  5  6  1  0  0  0  0
  5 20  1  0  0  0  0
  5 21  1  0  0  0  0
  5 28  1  0  0  0  0
  6  7  1  0  0  0  0
  6 22  1  0  0  0  0
  6 23  1  0  0  0  0
  7 24  1  0  0  0  0
  8  9  1  0  0  0  0
  9 14  2  0  0  0  0
  9 10  1  0  0  0  0
 10 11  2  0  0  0  0
 10 16  1  0  0  0  0
 11 12  1  0  0  0  0
 11 25  1  0  0  0  0
 12 13  2  0  0  0  0
 12 26  1  0  0  0  0
 13 14  1  0  0  0  0
 13 27  1  0  0  0  0
 14 15  1  0  0  0  0
 28 29  1  0  0  0  0
M  END
$$$$
