ZINC00968327
 OpenBabel08292219463D

 45 47  0  0  1  0  0  0  0  0999 V2000
   -0.0187    1.5258    0.0104 C   0  0  0  0  0  0  0  0  0  0  0  0
    0.0021   -0.0041    0.0020 C   0  0  0  0  0  0  0  0  0  0  0  0
    0.7074   -0.4901   -1.2379 C   0  0  0  0  0  0  0  0  0  0  0  0
   -0.0042   -0.7219   -2.4052 C   0  0  0  0  0  0  0  0  0  0  0  0
    0.6863   -1.1686   -3.5212 C   0  0  0  0  0  0  0  0  0  0  0  0
    2.0515   -1.3665   -3.4340 C   0  0  0  0  0  0  0  0  0  0  0  0
    2.6957   -1.1360   -2.3068 N   0  0  0  0  0  0  0  0  0  0  0  0
    2.0724   -0.7048   -1.2275 C   0  0  0  0  0  0  0  0  0  0  0  0
    2.8124   -1.8518   -4.6409 C   0  0  0  0  0  0  0  0  0  0  0  0
    3.9559   -0.8824   -4.9466 C   0  0  0  0  0  0  0  0  0  0  0  0
    4.6774   -1.3426   -6.0910 O   0  0  0  0  0  0  0  0  0  0  0  0
    5.7327   -0.5897   -6.4989 C   0  0  0  0  0  0  0  0  0  0  0  0
    6.0704    0.5652   -5.8083 C   0  0  0  0  0  0  0  0  0  0  0  0
    7.1439    1.3286   -6.2246 C   0  0  0  0  0  0  0  0  0  0  0  0
    7.8812    0.9427   -7.3288 C   0  0  0  0  0  0  0  0  0  0  0  0
    7.5463   -0.2076   -8.0191 C   0  0  0  0  0  0  0  0  0  0  0  0
    6.4775   -0.9777   -7.6031 C   0  0  0  0  0  0  0  0  0  0  0  0
    9.0514    1.7777   -7.7811 C   0  0  0  0  0  0  0  0  0  0  0  0
   10.3234    1.2942   -7.0816 C   0  0  2  0  0  0  0  0  0  0  0  0
   10.1976    1.2843   -5.9990 H   0  0  0  0  0  0  0  0  0  0  0  0
   11.5310    2.1255   -7.4915 C   0  0  0  0  0  0  0  0  0  0  0  0
   11.6078    3.3136   -7.2622 O   0  0  0  0  0  0  0  0  0  0  0  0
   12.4905    1.4623   -8.1144 N   0  0  0  0  0  0  0  0  0  0  0  0
   12.4296    0.1443   -8.3802 C   0  0  0  0  0  0  0  0  0  0  0  0
   13.2568   -0.5460   -8.9434 O   0  0  0  0  0  0  0  0  0  0  0  0
   10.8483   -0.3549   -7.7104 S   0  0  0  0  0  0  0  0  0  0  0  0
    1.0039    1.9031    0.0027 H   0  0  0  0  0  0  0  0  0  0  0  0
   -0.5459    1.8868   -0.8726 H   0  0  0  0  0  0  0  0  0  0  0  0
   -0.5289    1.8773    0.9072 H   0  0  0  0  0  0  0  0  0  0  0  0
    0.5293   -0.3651    0.8851 H   0  0  0  0  0  0  0  0  0  0  0  0
   -1.0205   -0.3814    0.0098 H   0  0  0  0  0  0  0  0  0  0  0  0
   -1.0711   -0.5588   -2.4439 H   0  0  0  0  0  0  0  0  0  0  0  0
    0.1641   -1.3598   -4.4471 H   0  0  0  0  0  0  0  0  0  0  0  0
    2.6347   -0.5220   -0.3237 H   0  0  0  0  0  0  0  0  0  0  0  0
    3.2199   -2.8425   -4.4393 H   0  0  0  0  0  0  0  0  0  0  0  0
    2.1404   -1.9028   -5.4976 H   0  0  0  0  0  0  0  0  0  0  0  0
    3.5484    0.1082   -5.1482 H   0  0  0  0  0  0  0  0  0  0  0  0
    4.6278   -0.8314   -4.0898 H   0  0  0  0  0  0  0  0  0  0  0  0
    5.4944    0.8673   -4.9462 H   0  0  0  0  0  0  0  0  0  0  0  0
    7.4072    2.2277   -5.6873 H   0  0  0  0  0  0  0  0  0  0  0  0
    8.1235   -0.5066   -8.8815 H   0  0  0  0  0  0  0  0  0  0  0  0
    6.2191   -1.8785   -8.1399 H   0  0  0  0  0  0  0  0  0  0  0  0
    9.1711    1.6812   -8.8602 H   0  0  0  0  0  0  0  0  0  0  0  0
    8.8719    2.8224   -7.5274 H   0  0  0  0  0  0  0  0  0  0  0  0
   13.2798    1.9516   -8.3948 H   0  0  0  0  0  0  0  0  0  0  0  0
  1  2  1  0  0  0  0
  1 27  1  0  0  0  0
  1 28  1  0  0  0  0
  1 29  1  0  0  0  0
  2  3  1  0  0  0  0
  2 30  1  0  0  0  0
  2 31  1  0  0  0  0
  3  8  2  0  0  0  0
  3  4  1  0  0  0  0
  4  5  2  0  0  0  0
  4 32  1  0  0  0  0
  5  6  1  0  0  0  0
  5 33  1  0  0  0  0
  6  7  2  0  0  0  0
  6  9  1  0  0  0  0
  7  8  1  0  0  0  0
  8 34  1  0  0  0  0
  9 10  1  0  0  0  0
  9 35  1  0  0  0  0
  9 36  1  0  0  0  0
 10 11  1  0  0  0  0
 10 37  1  0  0  0  0
 10 38  1  0  0  0  0
 11 12  1  0  0  0  0
 12 17  2  0  0  0  0
 12 13  1  0  0  0  0
 13 14  2  0  0  0  0
 13 39  1  0  0  0  0
 14 15  1  0  0  0  0
 14 40  1  0  0  0  0
 15 16  2  0  0  0  0
 15 18  1  0  0  0  0
 16 17  1  0  0  0  0
 16 41  1  0  0  0  0
 17 42  1  0  0  0  0
 18 19  1  0  0  0  0
 18 43  1  0  0  0  0
 18 44  1  0  0  0  0
 19 20  1  1  0  0  0
 19 26  1  0  0  0  0
 19 21  1  0  0  0  0
 21 22  2  0  0  0  0
 21 23  1  0  0  0  0
 23 24  1  0  0  0  0
 23 45  1  0  0  0  0
 24 25  2  0  0  0  0
 24 26  1  0  0  0  0
M  END
$$$$
