ZINC30691722
 OpenBabel08292219463D

 63 67  0  0  1  0  0  0  0  0999 V2000
    3.1508    7.3700  -12.2850 C   0  0  0  0  0  0  0  0  0  0  0  0
    2.3414    6.3691  -12.7898 C   0  0  0  0  0  0  0  0  0  0  0  0
    1.9754    5.3051  -11.9883 C   0  0  0  0  0  0  0  0  0  0  0  0
    2.4207    5.2414  -10.6759 C   0  0  0  0  0  0  0  0  0  0  0  0
    3.2281    6.2499  -10.1701 C   0  0  0  0  0  0  0  0  0  0  0  0
    3.5963    7.3086  -10.9775 C   0  0  0  0  0  0  0  0  0  0  0  0
    2.0621    4.1957   -9.8855 O   0  0  0  0  0  0  0  0  0  0  0  0
    2.5575    4.1959   -8.5451 C   0  0  0  0  0  0  0  0  0  0  0  0
    2.0523    2.9502   -7.8145 C   0  0  0  0  0  0  0  0  0  0  0  0
    2.5828    2.9503   -6.3794 C   0  0  0  0  0  0  0  0  0  0  0  0
    2.0977    1.7543   -5.6779 N   0  3  1  0  0  0  0  0  0  0  0  0
    0.6332    1.7834   -5.6702 C   0  0  0  0  0  0  0  0  0  0  0  0
    0.0881    0.5467   -4.9524 C   0  0  0  0  0  0  0  0  0  0  0  0
    1.2688   -0.3115   -4.4793 C   0  0  1  0  0  0  0  0  0  0  0  0
    2.1136   -0.7207   -5.6931 C   0  0  0  0  0  0  0  0  0  0  0  0
    2.5866    0.5768   -6.3991 C   0  0  0  0  0  0  0  0  0  0  0  0
    2.1416    0.5384   -3.5466 C   0  0  1  0  0  0  0  0  0  0  0  0
    2.9908   -0.0402   -3.1540 H   0  0  0  0  0  0  0  0  0  0  0  0
    2.6210    1.7751   -4.3099 C   0  0  0  0  0  0  0  0  0  0  0  0
    1.3625    0.9505   -2.3927 O   0  0  0  0  0  0  0  0  0  0  0  0
    2.0284    1.1339   -1.2418 C   0  0  0  0  0  0  0  0  0  0  0  0
    3.2227    0.9560   -1.1999 O   0  0  0  0  0  0  0  0  0  0  0  0
    1.2864    1.5618   -0.0018 C   0  0  2  0  0  0  0  0  0  0  0  0
    1.1470    3.0623    0.0076 C   0  0  0  0  0  0  0  0  0  0  0  0
    0.1579    3.8309   -0.5102 C   0  0  0  0  0  0  0  0  0  0  0  0
    0.2381    5.2046   -0.3789 C   0  0  0  0  0  0  0  0  0  0  0  0
    1.3088    5.7430    0.2543 C   0  0  0  0  0  0  0  0  0  0  0  0
    2.2458    4.2891    0.6966 S   0  0  0  0  0  0  0  0  0  0  0  0
    2.0519    1.1207    1.2190 C   0  0  0  0  0  0  0  0  0  0  0  0
    1.9558   -0.0391    1.9139 C   0  0  0  0  0  0  0  0  0  0  0  0
    2.7709   -0.2311    3.0136 C   0  0  0  0  0  0  0  0  0  0  0  0
    3.6347    0.7505    3.3710 C   0  0  0  0  0  0  0  0  0  0  0  0
    3.3151    1.9934    2.1300 S   0  0  0  0  0  0  0  0  0  0  0  0
   -0.0110    0.9628    0.0073 O   0  0  0  0  0  0  0  0  0  0  0  0
    3.4358    8.2010  -12.9132 H   0  0  0  0  0  0  0  0  0  0  0  0
    1.9953    6.4190  -13.8116 H   0  0  0  0  0  0  0  0  0  0  0  0
    1.3429    4.5237  -12.3829 H   0  0  0  0  0  0  0  0  0  0  0  0
    3.5724    6.2048   -9.1474 H   0  0  0  0  0  0  0  0  0  0  0  0
    4.2284    8.0917  -10.5856 H   0  0  0  0  0  0  0  0  0  0  0  0
    3.6574    4.1910   -8.5607 H   0  0  0  0  0  0  0  0  0  0  0  0
    2.2022    5.0966   -8.0230 H   0  0  0  0  0  0  0  0  0  0  0  0
    0.9524    2.9551   -7.7988 H   0  0  0  0  0  0  0  0  0  0  0  0
    2.4075    2.0495   -8.3367 H   0  0  0  0  0  0  0  0  0  0  0  0
    3.6827    2.9453   -6.3951 H   0  0  0  0  0  0  0  0  0  0  0  0
    2.2276    3.8510   -5.8572 H   0  0  0  0  0  0  0  0  0  0  0  0
    0.2872    2.6870   -5.1470 H   0  0  0  0  0  0  0  0  0  0  0  0
    0.2612    1.7940   -6.7053 H   0  0  0  0  0  0  0  0  0  0  0  0
   -0.5145    0.8607   -4.0874 H   0  0  0  0  0  0  0  0  0  0  0  0
   -0.5395   -0.0327   -5.6455 H   0  0  0  0  0  0  0  0  0  0  0  0
    0.8985   -1.2073   -3.9592 H   0  0  0  0  0  0  0  0  0  0  0  0
    2.9794   -1.3094   -5.3556 H   0  0  0  0  0  0  0  0  0  0  0  0
    1.5023   -1.3271   -6.3777 H   0  0  0  0  0  0  0  0  0  0  0  0
    2.1968    0.5888   -7.4276 H   0  0  0  0  0  0  0  0  0  0  0  0
    3.6862    0.5922   -6.4236 H   0  0  0  0  0  0  0  0  0  0  0  0
    3.7206    1.7790   -4.3380 H   0  0  0  0  0  0  0  0  0  0  0  0
    2.2642    2.6790   -3.7945 H   0  0  0  0  0  0  0  0  0  0  0  0
   -0.6818    3.3767   -1.0152 H   0  0  0  0  0  0  0  0  0  0  0  0
   -0.5388    5.8397   -0.7783 H   0  0  0  0  0  0  0  0  0  0  0  0
    1.5363    6.7819    0.4423 H   0  0  0  0  0  0  0  0  0  0  0  0
    1.2549   -0.8030    1.6112 H   0  0  0  0  0  0  0  0  0  0  0  0
    2.7176   -1.1480    3.5820 H   0  0  0  0  0  0  0  0  0  0  0  0
    4.3345    0.7745    4.1933 H   0  0  0  0  0  0  0  0  0  0  0  0
   -0.7021    1.1603    0.8400 H   0  0  0  0  0  0  0  0  0  0  0  0
  1  6  2  0  0  0  0
  1  2  1  0  0  0  0
  1 35  1  0  0  0  0
  2  3  2  0  0  0  0
  2 36  1  0  0  0  0
  3  4  1  0  0  0  0
  3 37  1  0  0  0  0
  4  5  2  0  0  0  0
  4  7  1  0  0  0  0
  5  6  1  0  0  0  0
  5 38  1  0  0  0  0
  6 39  1  0  0  0  0
  7  8  1  0  0  0  0
  8  9  1  0  0  0  0
  8 40  1  0  0  0  0
  8 41  1  0  0  0  0
  9 10  1  0  0  0  0
  9 42  1  0  0  0  0
  9 43  1  0  0  0  0
 10 44  1  0  0  0  0
 10 45  1  0  0  0  0
 11 10  1  6  0  0  0
 11 16  1  0  0  0  0
 11 19  1  0  0  0  0
 11 12  1  0  0  0  0
 12 13  1  0  0  0  0
 12 46  1  0  0  0  0
 12 47  1  0  0  0  0
 13 14  1  0  0  0  0
 13 48  1  0  0  0  0
 13 49  1  0  0  0  0
 14 15  1  0  0  0  0
 14 17  1  0  0  0  0
 14 50  1  1  0  0  0
 15 16  1  0  0  0  0
 15 51  1  0  0  0  0
 15 52  1  0  0  0  0
 16 53  1  0  0  0  0
 16 54  1  0  0  0  0
 17 18  1  1  0  0  0
 17 19  1  0  0  0  0
 17 20  1  0  0  0  0
 19 55  1  0  0  0  0
 19 56  1  0  0  0  0
 20 21  1  0  0  0  0
 21 22  2  0  0  0  0
 23 21  1  6  0  0  0
 23 24  1  0  0  0  0
 23 29  1  0  0  0  0
 23 34  1  0  0  0  0
 24 28  1  0  0  0  0
 24 25  2  0  0  0  0
 25 26  1  0  0  0  0
 25 57  1  0  0  0  0
 26 27  2  0  0  0  0
 26 58  1  0  0  0  0
 27 28  1  0  0  0  0
 27 59  1  0  0  0  0
 29 33  1  0  0  0  0
 29 30  2  0  0  0  0
 30 31  1  0  0  0  0
 30 60  1  0  0  0  0
 31 32  2  0  0  0  0
 31 61  1  0  0  0  0
 32 33  1  0  0  0  0
 32 62  1  0  0  0  0
 34 63  1  0  0  0  0
M  CHG  1  11   1
M  END
$$$$
