ZINC00002101
 OpenBabel08292219463D

 19 19  0  0  0  0  0  0  0  0999 V2000
   -0.0168    1.3849    0.0097 C   0  0  0  0  0  0  0  0  0  0  0  0
    1.1707    2.0901    0.0021 C   0  0  0  0  0  0  0  0  0  0  0  0
    2.3774    1.4150   -0.0135 C   0  0  0  0  0  0  0  0  0  0  0  0
    2.3998    0.0323   -0.0211 C   0  0  0  0  0  0  0  0  0  0  0  0
    1.2161   -0.6790   -0.0137 C   0  0  0  0  0  0  0  0  0  0  0  0
    0.0021   -0.0041    0.0020 C   0  0  0  0  0  0  0  0  0  0  0  0
   -1.1970   -0.7204    0.0101 N   0  0  0  0  0  0  0  0  0  0  0  0
    3.8900    2.3186   -0.0243 S   0  0  0  0  0  0  0  0  0  0  0  0
    4.8717    1.4606   -0.5894 O   0  0  0  0  0  0  0  0  0  0  0  0
    3.5945    3.5988   -0.5657 O   0  0  0  0  0  0  0  0  0  0  0  0
    4.3264    2.5618    1.5546 N   0  0  0  0  0  0  0  0  0  0  0  0
   -0.9589    1.9127    0.0260 H   0  0  0  0  0  0  0  0  0  0  0  0
    1.1567    3.1700    0.0080 H   0  0  0  0  0  0  0  0  0  0  0  0
    3.3440   -0.4918   -0.0333 H   0  0  0  0  0  0  0  0  0  0  0  0
    1.2342   -1.7588   -0.0200 H   0  0  0  0  0  0  0  0  0  0  0  0
   -2.0441   -0.2480    0.0210 H   0  0  0  0  0  0  0  0  0  0  0  0
   -1.1825   -1.6903    0.0047 H   0  0  0  0  0  0  0  0  0  0  0  0
    3.7678    2.2202    2.2703 H   0  0  0  0  0  0  0  0  0  0  0  0
    5.1405    3.0458    1.7638 H   0  0  0  0  0  0  0  0  0  0  0  0
  1  6  2  0  0  0  0
  1  2  1  0  0  0  0
  1 12  1  0  0  0  0
  2  3  2  0  0  0  0
  2 13  1  0  0  0  0
  3  4  1  0  0  0  0
  3  8  1  0  0  0  0
  4  5  2  0  0  0  0
  4 14  1  0  0  0  0
  5  6  1  0  0  0  0
  5 15  1  0  0  0  0
  6  7  1  0  0  0  0
  7 16  1  0  0  0  0
  7 17  1  0  0  0  0
  8  9  2  0  0  0  0
  8 10  2  0  0  0  0
  8 11  1  0  0  0  0
 11 18  1  0  0  0  0
 11 19  1  0  0  0  0
M  END
$$$$
