ZINC03812841
 OpenBabel08292219463D

 65 67  0  0  1  0  0  0  0  0999 V2000
   -1.1954    0.9630    0.0052 C   0  0  0  0  0  0  0  0  0  0  0  0
   -1.2210   -0.5519    0.2178 C   0  0  0  0  0  0  0  0  0  0  0  0
   -0.1596   -0.9402    1.2491 C   0  0  2  0  0  0  0  0  0  0  0  0
   -0.3169   -0.3700    2.1647 H   0  0  0  0  0  0  0  0  0  0  0  0
    1.2311   -0.6334    0.6899 C   0  0  0  0  0  0  0  0  0  0  0  0
   -0.2664   -2.4130    1.5498 C   0  0  0  0  0  0  0  0  0  0  0  0
   -1.1054   -3.0833    0.9961 O   0  0  0  0  0  0  0  0  0  0  0  0
    0.5705   -2.9801    2.4328 O   0  0  0  0  0  0  0  0  0  0  0  0
    0.4124   -4.3805    2.6694 C   0  0  1  0  0  0  0  0  0  0  0  0
   -0.6343   -4.6481    2.5247 H   0  0  0  0  0  0  0  0  0  0  0  0
    1.2657   -5.1530    1.6656 C   0  0  0  0  0  0  0  0  0  0  0  0
    1.1077   -6.6534    1.9504 C   0  0  2  0  0  0  0  0  0  0  0  0
    0.0560   -6.9329    1.8878 H   0  0  0  0  0  0  0  0  0  0  0  0
    1.6229   -6.9102    3.3434 C   0  0  0  0  0  0  0  0  0  0  0  0
    1.4968   -5.9994    4.2906 C   0  0  0  0  0  0  0  0  0  0  0  0
    0.8040   -4.6845    4.0951 C   0  0  1  0  0  0  0  0  0  0  0  0
   -0.1122   -4.7131    4.6849 H   0  0  0  0  0  0  0  0  0  0  0  0
    1.6831   -3.5881    4.6998 C   0  0  2  0  0  0  0  0  0  0  0  0
    2.6665   -3.6071    4.2300 H   0  0  0  0  0  0  0  0  0  0  0  0
    1.8261   -3.8474    6.2006 C   0  0  2  0  0  0  0  0  0  0  0  0
    2.5865   -3.1798    6.6057 H   0  0  0  0  0  0  0  0  0  0  0  0
    2.2196   -5.2650    6.4840 C   0  0  0  0  0  0  0  0  0  0  0  0
    2.0671   -6.2619    5.6320 C   0  0  0  0  0  0  0  0  0  0  0  0
    0.4900   -3.5557    6.8867 C   0  0  0  0  0  0  0  0  0  0  0  0
    1.0312   -2.2229    4.4711 C   0  0  0  0  0  0  0  0  0  0  0  0
    1.6186   -1.2065    5.4522 C   0  0  0  0  0  0  0  0  0  0  0  0
    0.9668    0.1587    5.2235 C   0  0  2  0  0  0  0  0  0  0  0  0
    1.0824    0.4467    4.1786 H   0  0  0  0  0  0  0  0  0  0  0  0
    1.6393    1.2027    6.1189 C   0  0  0  0  0  0  0  0  0  0  0  0
    0.9568    2.5595    5.9177 C   0  0  2  0  0  0  0  0  0  0  0  0
    1.4246    3.3028    6.5632 H   0  0  0  0  0  0  0  0  0  0  0  0
   -0.5280    2.4263    6.2794 C   0  0  0  0  0  0  0  0  0  0  0  0
   -1.0995    1.2524    5.5148 C   0  0  0  0  0  0  0  0  0  0  0  0
   -2.1296    1.3583    4.8922 O   0  0  0  0  0  0  0  0  0  0  0  0
   -0.4261    0.0837    5.5474 O   0  0  0  0  0  0  0  0  0  0  0  0
    1.0851    2.9622    4.5526 O   0  0  0  0  0  0  0  0  0  0  0  0
    1.9207   -7.4623    0.9377 C   0  0  0  0  0  0  0  0  0  0  0  0
   -0.2114    1.2627   -0.3556 H   0  0  0  0  0  0  0  0  0  0  0  0
   -1.9515    1.2396   -0.7296 H   0  0  0  0  0  0  0  0  0  0  0  0
   -1.4049    1.4660    0.9492 H   0  0  0  0  0  0  0  0  0  0  0  0
   -2.2049   -0.8516    0.5786 H   0  0  0  0  0  0  0  0  0  0  0  0
   -1.0115   -1.0549   -0.7262 H   0  0  0  0  0  0  0  0  0  0  0  0
    1.9873   -0.9100    1.4246 H   0  0  0  0  0  0  0  0  0  0  0  0
    1.3885   -1.2035   -0.2257 H   0  0  0  0  0  0  0  0  0  0  0  0
    1.3084    0.4319    0.4724 H   0  0  0  0  0  0  0  0  0  0  0  0
    0.9289   -4.9342    0.6523 H   0  0  0  0  0  0  0  0  0  0  0  0
    2.3116   -4.8665    1.7755 H   0  0  0  0  0  0  0  0  0  0  0  0
    2.1012   -7.8517    3.5697 H   0  0  0  0  0  0  0  0  0  0  0  0
    2.6523   -5.4861    7.4485 H   0  0  0  0  0  0  0  0  0  0  0  0
    2.3619   -7.2630    5.9101 H   0  0  0  0  0  0  0  0  0  0  0  0
   -0.2805   -4.2064    6.4733 H   0  0  0  0  0  0  0  0  0  0  0  0
    0.5838   -3.7383    7.9572 H   0  0  0  0  0  0  0  0  0  0  0  0
    0.2149   -2.5145    6.7184 H   0  0  0  0  0  0  0  0  0  0  0  0
    1.2237   -1.8950    3.4495 H   0  0  0  0  0  0  0  0  0  0  0  0
   -0.0441   -2.3025    4.6307 H   0  0  0  0  0  0  0  0  0  0  0  0
    1.4262   -1.5344    6.4738 H   0  0  0  0  0  0  0  0  0  0  0  0
    2.6939   -1.1270    5.2926 H   0  0  0  0  0  0  0  0  0  0  0  0
    1.5473    0.9005    7.1621 H   0  0  0  0  0  0  0  0  0  0  0  0
    2.6937    1.2833    5.8548 H   0  0  0  0  0  0  0  0  0  0  0  0
   -0.6311    2.2524    7.3505 H   0  0  0  0  0  0  0  0  0  0  0  0
   -1.0570    3.3380    6.0021 H   0  0  0  0  0  0  0  0  0  0  0  0
    0.6746    3.8148    4.3538 H   0  0  0  0  0  0  0  0  0  0  0  0
    2.9731   -7.1897    1.0159 H   0  0  0  0  0  0  0  0  0  0  0  0
    1.8045   -8.5260    1.1451 H   0  0  0  0  0  0  0  0  0  0  0  0
    1.5636   -7.2474   -0.0695 H   0  0  0  0  0  0  0  0  0  0  0  0
  1  2  1  0  0  0  0
  1 38  1  0  0  0  0
  1 39  1  0  0  0  0
  1 40  1  0  0  0  0
  2  3  1  0  0  0  0
  2 41  1  0  0  0  0
  2 42  1  0  0  0  0
  3  4  1  1  0  0  0
  3  5  1  0  0  0  0
  3  6  1  0  0  0  0
  5 43  1  0  0  0  0
  5 44  1  0  0  0  0
  5 45  1  0  0  0  0
  6  7  2  0  0  0  0
  6  8  1  0  0  0  0
  8  9  1  0  0  0  0
  9 10  1  6  0  0  0
  9 16  1  0  0  0  0
  9 11  1  0  0  0  0
 11 12  1  0  0  0  0
 11 46  1  0  0  0  0
 11 47  1  0  0  0  0
 12 13  1  6  0  0  0
 12 14  1  0  0  0  0
 12 37  1  0  0  0  0
 14 15  2  0  0  0  0
 14 48  1  0  0  0  0
 15 23  1  0  0  0  0
 15 16  1  0  0  0  0
 16 17  1  1  0  0  0
 16 18  1  0  0  0  0
 18 19  1  6  0  0  0
 18 20  1  0  0  0  0
 18 25  1  0  0  0  0
 20 21  1  1  0  0  0
 20 22  1  0  0  0  0
 20 24  1  0  0  0  0
 22 23  2  0  0  0  0
 22 49  1  0  0  0  0
 23 50  1  0  0  0  0
 24 51  1  0  0  0  0
 24 52  1  0  0  0  0
 24 53  1  0  0  0  0
 25 26  1  0  0  0  0
 25 54  1  0  0  0  0
 25 55  1  0  0  0  0
 26 27  1  0  0  0  0
 26 56  1  0  0  0  0
 26 57  1  0  0  0  0
 27 28  1  6  0  0  0
 27 35  1  0  0  0  0
 27 29  1  0  0  0  0
 29 30  1  0  0  0  0
 29 58  1  0  0  0  0
 29 59  1  0  0  0  0
 30 31  1  1  0  0  0
 30 32  1  0  0  0  0
 30 36  1  0  0  0  0
 32 33  1  0  0  0  0
 32 60  1  0  0  0  0
 32 61  1  0  0  0  0
 33 34  2  0  0  0  0
 33 35  1  0  0  0  0
 36 62  1  0  0  0  0
 37 63  1  0  0  0  0
 37 64  1  0  0  0  0
 37 65  1  0  0  0  0
M  END
$$$$
