ZINC02522648
 OpenBabel08292219463D

 37 38  0  0  1  0  0  0  0  0999 V2000
   -0.0173    1.4248    0.0099 C   0  0  0  0  0  0  0  0  0  0  0  0
    0.0021   -0.0041    0.0020 O   0  0  0  0  0  0  0  0  0  0  0  0
   -1.1855   -0.6297    0.0100 C   0  0  0  0  0  0  0  0  0  0  0  0
   -2.2076    0.0145    0.0232 O   0  0  0  0  0  0  0  0  0  0  0  0
   -1.2439   -2.1355    0.0025 C   0  0  1  0  0  0  0  0  0  0  0  0
   -0.7361   -2.5233    0.8856 H   0  0  0  0  0  0  0  0  0  0  0  0
   -2.6831   -2.5824    0.0138 C   0  0  0  0  0  0  0  0  0  0  0  0
   -3.5291   -2.2149   -1.0158 C   0  0  0  0  0  0  0  0  0  0  0  0
   -4.8492   -2.6248   -1.0054 C   0  0  0  0  0  0  0  0  0  0  0  0
   -5.3232   -3.4027    0.0344 C   0  0  0  0  0  0  0  0  0  0  0  0
   -4.4770   -3.7710    1.0635 C   0  0  0  0  0  0  0  0  0  0  0  0
   -3.1558   -3.3646    1.0509 C   0  0  0  0  0  0  0  0  0  0  0  0
   -0.5550   -2.6664   -1.2563 C   0  0  2  0  0  0  0  0  0  0  0  0
   -1.0631   -2.2784   -2.1391 H   0  0  0  0  0  0  0  0  0  0  0  0
   -0.6160   -4.1953   -1.2641 C   0  0  0  0  0  0  0  0  0  0  0  0
    0.0744   -4.7218   -2.5256 C   0  0  0  0  0  0  0  0  0  0  0  0
    1.5130   -4.1982   -2.5646 C   0  0  0  0  0  0  0  0  0  0  0  0
    1.4951   -2.6691   -2.5086 C   0  0  0  0  0  0  0  0  0  0  0  0
    0.8463   -2.2295   -1.2675 N   0  3  0  0  0  0  0  0  0  0  0  0
    1.0053    1.8021    0.0021 H   0  0  0  0  0  0  0  0  0  0  0  0
   -0.5445    1.7859   -0.8732 H   0  0  0  0  0  0  0  0  0  0  0  0
   -0.5275    1.7763    0.9067 H   0  0  0  0  0  0  0  0  0  0  0  0
   -3.1588   -1.6072   -1.8282 H   0  0  0  0  0  0  0  0  0  0  0  0
   -5.5104   -2.3371   -1.8095 H   0  0  0  0  0  0  0  0  0  0  0  0
   -6.3548   -3.7224    0.0429 H   0  0  0  0  0  0  0  0  0  0  0  0
   -4.8474   -4.3784    1.8761 H   0  0  0  0  0  0  0  0  0  0  0  0
   -2.4937   -3.6554    1.8531 H   0  0  0  0  0  0  0  0  0  0  0  0
   -0.1079   -4.5844   -0.3818 H   0  0  0  0  0  0  0  0  0  0  0  0
   -1.6571   -4.5181   -1.2573 H   0  0  0  0  0  0  0  0  0  0  0  0
    0.0835   -5.8117   -2.5082 H   0  0  0  0  0  0  0  0  0  0  0  0
   -0.4639   -4.3747   -3.4075 H   0  0  0  0  0  0  0  0  0  0  0  0
    2.0653   -4.5873   -1.7093 H   0  0  0  0  0  0  0  0  0  0  0  0
    1.9936   -4.5230   -3.4874 H   0  0  0  0  0  0  0  0  0  0  0  0
    2.5178   -2.2930   -2.5365 H   0  0  0  0  0  0  0  0  0  0  0  0
    0.9428   -2.2811   -3.3645 H   0  0  0  0  0  0  0  0  0  0  0  0
    0.8842   -1.2230   -1.2081 H   0  0  0  0  0  0  0  0  0  0  0  0
    1.3286   -2.6295   -0.4766 H   0  0  0  0  0  0  0  0  0  0  0  0
  1  2  1  0  0  0  0
  1 20  1  0  0  0  0
  1 21  1  0  0  0  0
  1 22  1  0  0  0  0
  2  3  1  0  0  0  0
  3  4  2  0  0  0  0
  3  5  1  0  0  0  0
  5  6  1  1  0  0  0
  5  7  1  0  0  0  0
  5 13  1  0  0  0  0
  7 12  2  0  0  0  0
  7  8  1  0  0  0  0
  8  9  2  0  0  0  0
  8 23  1  0  0  0  0
  9 10  1  0  0  0  0
  9 24  1  0  0  0  0
 10 11  2  0  0  0  0
 10 25  1  0  0  0  0
 11 12  1  0  0  0  0
 11 26  1  0  0  0  0
 12 27  1  0  0  0  0
 13 14  1  6  0  0  0
 13 19  1  0  0  0  0
 13 15  1  0  0  0  0
 15 16  1  0  0  0  0
 15 28  1  0  0  0  0
 15 29  1  0  0  0  0
 16 17  1  0  0  0  0
 16 30  1  0  0  0  0
 16 31  1  0  0  0  0
 17 18  1  0  0  0  0
 17 32  1  0  0  0  0
 17 33  1  0  0  0  0
 18 19  1  0  0  0  0
 18 34  1  0  0  0  0
 18 35  1  0  0  0  0
 19 36  1  0  0  0  0
 19 37  1  0  0  0  0
M  CHG  1  19   1
M  END
$$$$
