ZINC00057001
 OpenBabel08292219463D

 28 28  0  0  1  0  0  0  0  0999 V2000
   -0.0187    1.5258    0.0104 C   0  0  0  0  0  0  0  0  0  0  0  0
    0.0021   -0.0041    0.0020 C   0  0  2  0  0  0  0  0  0  0  0  0
   -1.0205   -0.3814    0.0098 H   0  0  0  0  0  0  0  0  0  0  0  0
    0.7421   -0.5109    1.2415 C   0  0  0  0  0  0  0  0  0  0  0  0
   -0.1871   -0.0517    2.7303 S   0  0  0  0  0  0  0  0  0  0  0  0
    0.7074   -0.4901   -1.2379 C   0  0  0  0  0  0  0  0  0  0  0  0
    1.7039   -1.1744   -1.1398 O   0  0  0  0  0  0  0  0  0  0  0  0
    0.2309   -0.1642   -2.4557 N   0  0  0  0  0  0  0  0  0  0  0  0
   -0.9612    0.6622   -2.7190 C   0  0  0  0  0  0  0  0  0  0  0  0
   -1.4323    0.2395   -4.1329 C   0  0  0  0  0  0  0  0  0  0  0  0
   -0.0792    0.0101   -4.8565 C   0  0  0  0  0  0  0  0  0  0  0  0
    0.8176   -0.5687   -3.7417 C   0  0  1  0  0  0  0  0  0  0  0  0
    0.8397   -1.6561   -3.8134 H   0  0  0  0  0  0  0  0  0  0  0  0
    2.2140   -0.0156   -3.8646 C   0  0  0  0  0  0  0  0  0  0  0  0
    2.9386   -0.3858   -4.7726 O   0  0  0  0  0  0  0  0  0  0  0  0
    2.6192    0.8020   -3.0561 O   0  0  0  0  0  1  0  0  0  0  0  0
    1.0039    1.9031    0.0027 H   0  0  0  0  0  0  0  0  0  0  0  0
   -0.5459    1.8868   -0.8726 H   0  0  0  0  0  0  0  0  0  0  0  0
   -0.5289    1.8773    0.9072 H   0  0  0  0  0  0  0  0  0  0  0  0
    0.8346   -1.5958    1.1912 H   0  0  0  0  0  0  0  0  0  0  0  0
    1.7350   -0.0630    1.2804 H   0  0  0  0  0  0  0  0  0  0  0  0
    0.5521   -0.5447    3.7401 H   0  0  0  0  0  0  0  0  0  0  0  0
   -1.7373    0.4540   -1.9825 H   0  0  0  0  0  0  0  0  0  0  0  0
   -0.6995    1.7202   -2.7069 H   0  0  0  0  0  0  0  0  0  0  0  0
   -2.0144   -0.6812   -4.0917 H   0  0  0  0  0  0  0  0  0  0  0  0
   -2.0003    1.0379   -4.6104 H   0  0  0  0  0  0  0  0  0  0  0  0
   -0.1941   -0.7041   -5.6719 H   0  0  0  0  0  0  0  0  0  0  0  0
    0.3271    0.9530   -5.2227 H   0  0  0  0  0  0  0  0  0  0  0  0
  1  2  1  0  0  0  0
  1 17  1  0  0  0  0
  1 18  1  0  0  0  0
  1 19  1  0  0  0  0
  2  3  1  1  0  0  0
  2  4  1  0  0  0  0
  2  6  1  0  0  0  0
  4  5  1  0  0  0  0
  4 20  1  0  0  0  0
  4 21  1  0  0  0  0
  5 22  1  0  0  0  0
  6  7  2  0  0  0  0
  6  8  1  0  0  0  0
  8 12  1  0  0  0  0
  8  9  1  0  0  0  0
  9 10  1  0  0  0  0
  9 23  1  0  0  0  0
  9 24  1  0  0  0  0
 10 11  1  0  0  0  0
 10 25  1  0  0  0  0
 10 26  1  0  0  0  0
 11 12  1  0  0  0  0
 11 27  1  0  0  0  0
 11 28  1  0  0  0  0
 12 13  1  6  0  0  0
 12 14  1  0  0  0  0
 14 15  2  0  0  0  0
 14 16  1  0  0  0  0
M  END
$$$$
