ZINC03930376
 OpenBabel08292219463D

 66 67  0  0  0  0  0  0  0  0999 V2000
   -0.0187    1.5258    0.0104 C   0  0  0  0  0  0  0  0  0  0  0  0
    0.0021   -0.0041    0.0020 C   0  0  0  0  0  0  0  0  0  0  0  0
    0.7421   -0.5109    1.2415 C   0  0  0  0  0  0  0  0  0  0  0  0
   -1.4333   -0.5336    0.0129 C   0  0  0  0  0  0  0  0  0  0  0  0
    0.7074   -0.4901   -1.2379 C   0  0  0  0  0  0  0  0  0  0  0  0
    1.1483    0.3055   -2.0332 O   0  0  0  0  0  0  0  0  0  0  0  0
    0.8459   -1.8068   -1.4587 O   0  0  0  0  0  0  0  0  0  0  0  0
    1.5252   -2.1962   -2.6541 C   0  0  0  0  0  0  0  0  0  0  0  0
    2.9288   -1.9787   -2.4968 O   0  0  0  0  0  0  0  0  0  0  0  0
    4.0019   -2.3082   -3.6509 P   0  0  0  0  0  0  0  0  0  0  0  0
    3.6218   -1.6012   -4.8944 O   0  0  0  0  0  0  0  0  0  0  0  0
    5.6555   -1.7554   -3.1188 C   0  0  0  0  0  0  0  0  0  0  0  0
    6.6080   -2.0478   -4.1432 O   0  0  0  0  0  0  0  0  0  0  0  0
    6.5391   -1.1700   -5.2687 C   0  0  0  0  0  0  0  0  0  0  0  0
    7.5980   -1.5744   -6.2964 C   0  0  0  0  0  0  0  0  0  0  0  0
    7.5273   -0.6744   -7.4503 N   0  0  0  0  0  0  0  0  0  0  0  0
    6.8348   -0.8945   -8.6036 C   0  0  0  0  0  0  0  0  0  0  0  0
    6.9914    0.1109   -9.4150 N   0  0  0  0  0  0  0  0  0  0  0  0
    7.7922    1.0373   -8.8357 C   0  0  0  0  0  0  0  0  0  0  0  0
    8.1413    0.5471   -7.5659 C   0  0  0  0  0  0  0  0  0  0  0  0
    8.9269    1.2802   -6.7840 N   0  0  0  0  0  0  0  0  0  0  0  0
    9.3716    2.4513   -7.1886 C   0  0  0  0  0  0  0  0  0  0  0  0
    9.0682    2.9547   -8.3711 N   0  0  0  0  0  0  0  0  0  0  0  0
    8.2961    2.2900   -9.2246 C   0  0  0  0  0  0  0  0  0  0  0  0
    7.9827    2.8263  -10.4613 N   0  0  0  0  0  0  0  0  0  0  0  0
    4.0280   -3.8949   -3.9223 O   0  0  0  0  0  0  0  0  0  0  0  0
    2.9113   -4.6125   -4.4516 C   0  0  0  0  0  0  0  0  0  0  0  0
    3.2489   -5.9956   -4.5747 O   0  0  0  0  0  0  0  0  0  0  0  0
    3.2890   -6.7162   -3.4429 C   0  0  0  0  0  0  0  0  0  0  0  0
    3.0457   -6.1901   -2.3828 O   0  0  0  0  0  0  0  0  0  0  0  0
    3.6377   -8.1814   -3.4945 C   0  0  0  0  0  0  0  0  0  0  0  0
    3.6129   -8.7617   -2.0791 C   0  0  0  0  0  0  0  0  0  0  0  0
    2.6181   -8.9179   -4.3656 C   0  0  0  0  0  0  0  0  0  0  0  0
    5.0361   -8.3521   -4.0913 C   0  0  0  0  0  0  0  0  0  0  0  0
    1.0039    1.9031    0.0027 H   0  0  0  0  0  0  0  0  0  0  0  0
   -0.5459    1.8868   -0.8726 H   0  0  0  0  0  0  0  0  0  0  0  0
   -0.5289    1.8773    0.9072 H   0  0  0  0  0  0  0  0  0  0  0  0
    0.2319   -0.1594    2.1383 H   0  0  0  0  0  0  0  0  0  0  0  0
    0.7568   -1.6008    1.2356 H   0  0  0  0  0  0  0  0  0  0  0  0
    1.7647   -0.1336    1.2338 H   0  0  0  0  0  0  0  0  0  0  0  0
   -1.9605   -0.1726   -0.8702 H   0  0  0  0  0  0  0  0  0  0  0  0
   -1.4185   -1.6235    0.0069 H   0  0  0  0  0  0  0  0  0  0  0  0
   -1.9435   -0.1821    0.9097 H   0  0  0  0  0  0  0  0  0  0  0  0
    1.3408   -3.2527   -2.8490 H   0  0  0  0  0  0  0  0  0  0  0  0
    1.1570   -1.6027   -3.4910 H   0  0  0  0  0  0  0  0  0  0  0  0
    5.6378   -0.6811   -2.9351 H   0  0  0  0  0  0  0  0  0  0  0  0
    5.9355   -2.2761   -2.2031 H   0  0  0  0  0  0  0  0  0  0  0  0
    5.5497   -1.2363   -5.7211 H   0  0  0  0  0  0  0  0  0  0  0  0
    6.7217   -0.1461   -4.9426 H   0  0  0  0  0  0  0  0  0  0  0  0
    8.5874   -1.5081   -5.8440 H   0  0  0  0  0  0  0  0  0  0  0  0
    7.4154   -2.5983   -6.6225 H   0  0  0  0  0  0  0  0  0  0  0  0
    6.2435   -1.7736   -8.8132 H   0  0  0  0  0  0  0  0  0  0  0  0
   10.0082    3.0219   -6.5286 H   0  0  0  0  0  0  0  0  0  0  0  0
    7.4090    2.3365  -11.0711 H   0  0  0  0  0  0  0  0  0  0  0  0
    8.3367    3.6921  -10.7183 H   0  0  0  0  0  0  0  0  0  0  0  0
    2.0591   -4.5049   -3.7805 H   0  0  0  0  0  0  0  0  0  0  0  0
    2.6542   -4.2125   -5.4324 H   0  0  0  0  0  0  0  0  0  0  0  0
    2.6166   -8.6400   -1.6539 H   0  0  0  0  0  0  0  0  0  0  0  0
    3.8651   -9.8215   -2.1164 H   0  0  0  0  0  0  0  0  0  0  0  0
    4.3393   -8.2370   -1.4585 H   0  0  0  0  0  0  0  0  0  0  0  0
    2.6357   -8.5045   -5.3740 H   0  0  0  0  0  0  0  0  0  0  0  0
    2.8702   -9.9777   -4.4029 H   0  0  0  0  0  0  0  0  0  0  0  0
    1.6218   -8.7962   -3.9405 H   0  0  0  0  0  0  0  0  0  0  0  0
    5.7625   -7.8275   -3.4707 H   0  0  0  0  0  0  0  0  0  0  0  0
    5.2883   -9.4119   -4.1286 H   0  0  0  0  0  0  0  0  0  0  0  0
    5.0538   -7.9387   -5.0997 H   0  0  0  0  0  0  0  0  0  0  0  0
  1  2  1  0  0  0  0
  1 35  1  0  0  0  0
  1 36  1  0  0  0  0
  1 37  1  0  0  0  0
  2  3  1  0  0  0  0
  2  4  1  0  0  0  0
  2  5  1  0  0  0  0
  3 38  1  0  0  0  0
  3 39  1  0  0  0  0
  3 40  1  0  0  0  0
  4 41  1  0  0  0  0
  4 42  1  0  0  0  0
  4 43  1  0  0  0  0
  5  6  2  0  0  0  0
  5  7  1  0  0  0  0
  7  8  1  0  0  0  0
  8  9  1  0  0  0  0
  8 44  1  0  0  0  0
  8 45  1  0  0  0  0
  9 10  1  0  0  0  0
 10 11  2  0  0  0  0
 10 12  1  0  0  0  0
 10 26  1  0  0  0  0
 12 13  1  0  0  0  0
 12 46  1  0  0  0  0
 12 47  1  0  0  0  0
 13 14  1  0  0  0  0
 14 15  1  0  0  0  0
 14 48  1  0  0  0  0
 14 49  1  0  0  0  0
 15 16  1  0  0  0  0
 15 50  1  0  0  0  0
 15 51  1  0  0  0  0
 16 20  1  0  0  0  0
 16 17  1  0  0  0  0
 17 18  2  0  0  0  0
 17 52  1  0  0  0  0
 18 19  1  0  0  0  0
 19 24  2  0  0  0  0
 19 20  1  0  0  0  0
 20 21  2  0  0  0  0
 21 22  1  0  0  0  0
 22 23  2  0  0  0  0
 22 53  1  0  0  0  0
 23 24  1  0  0  0  0
 24 25  1  0  0  0  0
 25 54  1  0  0  0  0
 25 55  1  0  0  0  0
 26 27  1  0  0  0  0
 27 28  1  0  0  0  0
 27 56  1  0  0  0  0
 27 57  1  0  0  0  0
 28 29  1  0  0  0  0
 29 30  2  0  0  0  0
 29 31  1  0  0  0  0
 31 32  1  0  0  0  0
 31 33  1  0  0  0  0
 31 34  1  0  0  0  0
 32 58  1  0  0  0  0
 32 59  1  0  0  0  0
 32 60  1  0  0  0  0
 33 61  1  0  0  0  0
 33 62  1  0  0  0  0
 33 63  1  0  0  0  0
 34 64  1  0  0  0  0
 34 65  1  0  0  0  0
 34 66  1  0  0  0  0
M  END
$$$$
