ZINC43450324
 OpenBabel08292219463D

 78 82  0  0  1  0  0  0  0  0999 V2000
   -5.8278    2.2067   -1.7587 C   0  0  0  0  0  0  0  0  0  0  0  0
   -5.4811    0.7247   -1.9147 C   0  0  0  0  0  0  0  0  0  0  0  0
   -4.6856    0.5201   -3.2056 C   0  0  0  0  0  0  0  0  0  0  0  0
   -4.6407    0.2690   -0.7202 C   0  0  0  0  0  0  0  0  0  0  0  0
   -4.3024   -1.2155   -0.8712 C   0  0  0  0  0  0  0  0  0  0  0  0
   -3.5466   -1.6952    0.3696 C   0  0  0  0  0  0  0  0  0  0  0  0
   -3.3059   -3.2028    0.2690 C   0  0  1  0  0  0  0  0  0  0  0  0
   -2.5087   -3.6743    1.4868 C   0  0  0  0  0  0  0  0  0  0  0  0
   -1.1709   -2.9810    1.5106 C   0  0  0  0  0  0  0  0  0  0  0  0
   -0.8336   -2.2868    0.5810 O   0  0  0  0  0  0  0  0  0  0  0  0
   -0.3541   -3.1346    2.5646 O   0  0  0  0  0  0  0  0  0  0  0  0
    0.8472   -2.3606    2.5726 C   0  0  0  0  0  0  0  0  0  0  0  0
   -4.6300   -3.9212    0.2265 C   0  0  0  0  0  0  0  0  0  0  0  0
   -5.6120   -3.4070    0.7074 O   0  0  0  0  0  0  0  0  0  0  0  0
   -4.7184   -5.1322   -0.3456 O   0  0  0  0  0  0  0  0  0  0  0  0
   -6.0045   -5.7551   -0.3503 C   0  0  1  0  0  0  0  0  0  0  0  0
   -6.7915   -5.0012   -0.3663 H   0  0  0  0  0  0  0  0  0  0  0  0
   -6.1405   -6.7030   -1.5632 C   0  0  2  0  0  0  0  0  0  0  0  0
   -5.1661   -7.0631   -1.8934 H   0  0  0  0  0  0  0  0  0  0  0  0
   -6.8681   -6.0119   -2.6821 C   0  0  0  0  0  0  0  0  0  0  0  0
   -6.9148   -4.6183   -2.6585 C   0  0  0  0  0  0  0  0  0  0  0  0
   -7.5625   -3.9759   -3.7004 C   0  0  0  0  0  0  0  0  0  0  0  0
   -8.1492   -4.7103   -4.7428 C   0  0  0  0  0  0  0  0  0  0  0  0
   -8.1048   -6.0937   -4.7517 C   0  0  0  0  0  0  0  0  0  0  0  0
   -7.4596   -6.7374   -3.6916 C   0  0  0  0  0  0  0  0  0  0  0  0
   -7.4858   -8.2471   -3.7101 C   0  0  0  0  0  0  0  0  0  0  0  0
   -6.2779   -8.8601   -3.0125 C   0  0  0  0  0  0  0  0  0  0  0  0
   -6.6217   -9.1041   -1.5906 N   0  0  1  0  0  0  0  0  0  0  0  0
   -6.9770   -7.8391   -0.9638 C   0  0  2  0  0  0  0  0  0  0  0  0
   -8.4790   -7.6698   -1.2400 C   0  0  0  0  0  0  0  0  0  0  0  0
   -8.9745   -9.1297   -1.0309 C   0  0  0  0  0  0  0  0  0  0  0  0
   -7.8337   -9.9645   -1.5720 C   0  0  0  0  0  0  0  0  0  0  0  0
   -6.6959   -7.8115    0.5116 C   0  0  0  0  0  0  0  0  0  0  0  0
   -6.1599   -6.6559    0.8565 C   0  0  0  0  0  0  0  0  0  0  0  0
   -5.7948   -6.3205    2.1194 O   0  0  0  0  0  0  0  0  0  0  0  0
   -6.0149   -7.2969    3.1393 C   0  0  0  0  0  0  0  0  0  0  0  0
   -8.7007   -3.8468   -5.6260 O   0  0  0  0  0  0  0  0  0  0  0  0
   -8.8003   -2.5895   -4.9254 C   0  0  0  0  0  0  0  0  0  0  0  0
   -7.7563   -2.6581   -3.9318 O   0  0  0  0  0  0  0  0  0  0  0  0
   -2.5701   -3.4893   -0.9220 O   0  0  0  0  0  0  0  0  0  0  0  0
   -6.6852   -0.0429   -1.9705 O   0  0  0  0  0  0  0  0  0  0  0  0
   -6.4265    2.5313   -2.6097 H   0  0  0  0  0  0  0  0  0  0  0  0
   -6.3945    2.3524   -0.8390 H   0  0  0  0  0  0  0  0  0  0  0  0
   -4.9093    2.7921   -1.7161 H   0  0  0  0  0  0  0  0  0  0  0  0
   -3.7763    1.1201   -3.1709 H   0  0  0  0  0  0  0  0  0  0  0  0
   -4.4226   -0.5327   -3.3073 H   0  0  0  0  0  0  0  0  0  0  0  0
   -5.2914    0.8273   -4.0581 H   0  0  0  0  0  0  0  0  0  0  0  0
   -3.7190    0.8496   -0.6817 H   0  0  0  0  0  0  0  0  0  0  0  0
   -5.2047    0.4212    0.2001 H   0  0  0  0  0  0  0  0  0  0  0  0
   -5.2231   -1.7887   -0.9801 H   0  0  0  0  0  0  0  0  0  0  0  0
   -3.6791   -1.3581   -1.7540 H   0  0  0  0  0  0  0  0  0  0  0  0
   -2.5894   -1.1780    0.4345 H   0  0  0  0  0  0  0  0  0  0  0  0
   -4.1370   -1.4802    1.2603 H   0  0  0  0  0  0  0  0  0  0  0  0
   -3.0588   -3.4339    2.3965 H   0  0  0  0  0  0  0  0  0  0  0  0
   -2.3583   -4.7523    1.4274 H   0  0  0  0  0  0  0  0  0  0  0  0
    1.4505   -2.6352    3.4379 H   0  0  0  0  0  0  0  0  0  0  0  0
    1.4108   -2.5551    1.6602 H   0  0  0  0  0  0  0  0  0  0  0  0
    0.5965   -1.3012    2.6260 H   0  0  0  0  0  0  0  0  0  0  0  0
   -6.4612   -4.0586   -1.8540 H   0  0  0  0  0  0  0  0  0  0  0  0
   -8.5551   -6.6591   -5.5541 H   0  0  0  0  0  0  0  0  0  0  0  0
   -8.3925   -8.5902   -3.2118 H   0  0  0  0  0  0  0  0  0  0  0  0
   -7.5048   -8.5868   -4.7457 H   0  0  0  0  0  0  0  0  0  0  0  0
   -6.0182   -9.8035   -3.4928 H   0  0  0  0  0  0  0  0  0  0  0  0
   -5.4339   -8.1729   -3.0717 H   0  0  0  0  0  0  0  0  0  0  0  0
   -8.9378   -6.9912   -0.5209 H   0  0  0  0  0  0  0  0  0  0  0  0
   -8.6565   -7.3361   -2.2624 H   0  0  0  0  0  0  0  0  0  0  0  0
   -9.1464   -9.3298    0.0267 H   0  0  0  0  0  0  0  0  0  0  0  0
   -9.8786   -9.3159   -1.6106 H   0  0  0  0  0  0  0  0  0  0  0  0
   -8.0540  -10.3161   -2.5799 H   0  0  0  0  0  0  0  0  0  0  0  0
   -7.6751  -10.8138   -0.9075 H   0  0  0  0  0  0  0  0  0  0  0  0
   -6.9049   -8.6218    1.1943 H   0  0  0  0  0  0  0  0  0  0  0  0
   -7.0780   -7.5315    3.1943 H   0  0  0  0  0  0  0  0  0  0  0  0
   -5.4550   -8.2017    2.9030 H   0  0  0  0  0  0  0  0  0  0  0  0
   -5.6798   -6.9023    4.0985 H   0  0  0  0  0  0  0  0  0  0  0  0
   -8.6246   -1.7574   -5.6072 H   0  0  0  0  0  0  0  0  0  0  0  0
   -9.7758   -2.4943   -4.4485 H   0  0  0  0  0  0  0  0  0  0  0  0
   -3.0166   -3.2167   -1.7353 H   0  0  0  0  0  0  0  0  0  0  0  0
   -7.2681    0.1927   -2.7052 H   0  0  0  0  0  0  0  0  0  0  0  0
  1  2  1  0  0  0  0
  1 42  1  0  0  0  0
  1 43  1  0  0  0  0
  1 44  1  0  0  0  0
  2  3  1  0  0  0  0
  2  4  1  0  0  0  0
  2 41  1  0  0  0  0
  3 45  1  0  0  0  0
  3 46  1  0  0  0  0
  3 47  1  0  0  0  0
  4  5  1  0  0  0  0
  4 48  1  0  0  0  0
  4 49  1  0  0  0  0
  5  6  1  0  0  0  0
  5 50  1  0  0  0  0
  5 51  1  0  0  0  0
  6  7  1  0  0  0  0
  6 52  1  0  0  0  0
  6 53  1  0  0  0  0
  7  8  1  0  0  0  0
  7 13  1  6  0  0  0
  7 40  1  0  0  0  0
  8  9  1  0  0  0  0
  8 54  1  0  0  0  0
  8 55  1  0  0  0  0
  9 10  2  0  0  0  0
  9 11  1  0  0  0  0
 11 12  1  0  0  0  0
 12 56  1  0  0  0  0
 12 57  1  0  0  0  0
 12 58  1  0  0  0  0
 13 14  2  0  0  0  0
 13 15  1  0  0  0  0
 15 16  1  0  0  0  0
 16 17  1  6  0  0  0
 16 34  1  0  0  0  0
 16 18  1  0  0  0  0
 18 19  1  6  0  0  0
 18 29  1  0  0  0  0
 18 20  1  0  0  0  0
 20 25  2  0  0  0  0
 20 21  1  0  0  0  0
 21 22  2  0  0  0  0
 21 59  1  0  0  0  0
 22 39  1  0  0  0  0
 22 23  1  0  0  0  0
 23 24  2  0  0  0  0
 23 37  1  0  0  0  0
 24 25  1  0  0  0  0
 24 60  1  0  0  0  0
 25 26  1  0  0  0  0
 26 27  1  0  0  0  0
 26 61  1  0  0  0  0
 26 62  1  0  0  0  0
 27 63  1  0  0  0  0
 27 64  1  0  0  0  0
 28 27  1  6  0  0  0
 28 32  1  0  0  0  0
 28 29  1  0  0  0  0
 29 30  1  0  0  0  0
 29 33  1  1  0  0  0
 30 31  1  0  0  0  0
 30 65  1  0  0  0  0
 30 66  1  0  0  0  0
 31 32  1  0  0  0  0
 31 67  1  0  0  0  0
 31 68  1  0  0  0  0
 32 69  1  0  0  0  0
 32 70  1  0  0  0  0
 33 34  2  0  0  0  0
 33 71  1  0  0  0  0
 34 35  1  0  0  0  0
 35 36  1  0  0  0  0
 36 72  1  0  0  0  0
 36 73  1  0  0  0  0
 36 74  1  0  0  0  0
 37 38  1  0  0  0  0
 38 39  1  0  0  0  0
 38 75  1  0  0  0  0
 38 76  1  0  0  0  0
 40 77  1  0  0  0  0
 41 78  1  0  0  0  0
M  END
$$$$
