ZINC01532517
 OpenBabel08292219463D

  9  8  0  0  0  0  0  0  0  0999 V2000
   -0.0184    1.5028    0.0103 C   0  0  0  0  0  0  0  0  0  0  0  0
    0.0021   -0.0041    0.0020 C   0  0  0  0  0  0  0  0  0  0  0  0
    0.0203   -0.6135    1.0445 O   0  0  0  0  0  0  0  0  0  0  0  0
   -0.0001   -0.7438   -1.2954 C   0  0  0  0  0  0  0  0  0  0  0  0
    0.0164   -1.9641   -1.3022 O   0  0  0  0  0  0  0  0  0  0  0  0
   -0.0185   -0.1280   -2.3490 O   0  0  0  0  0  1  0  0  0  0  0  0
    1.0042    1.8801    0.0026 H   0  0  0  0  0  0  0  0  0  0  0  0
   -0.5455    1.8639   -0.8728 H   0  0  0  0  0  0  0  0  0  0  0  0
   -0.5286    1.8543    0.9071 H   0  0  0  0  0  0  0  0  0  0  0  0
  1  2  1  0  0  0  0
  1  7  1  0  0  0  0
  1  8  1  0  0  0  0
  1  9  1  0  0  0  0
  2  3  2  0  0  0  0
  2  4  1  0  0  0  0
  4  5  2  0  0  0  0
  4  6  1  0  0  0  0
M  END
$$$$
