ZINC03861806
 OpenBabel08292219463D

 52 56  0  0  1  0  0  0  0  0999 V2000
   -3.6930   -4.3953    1.3855 C   0  0  0  0  0  0  0  0  0  0  0  0
   -2.4437   -3.8768    0.9246 O   0  0  0  0  0  0  0  0  0  0  0  0
   -2.4359   -2.5932    0.4754 C   0  0  0  0  0  0  0  0  0  0  0  0
   -3.6051   -1.8476    0.4840 C   0  0  0  0  0  0  0  0  0  0  0  0
   -3.5982   -0.5428    0.0277 C   0  0  0  0  0  0  0  0  0  0  0  0
   -2.4270    0.0241   -0.4388 C   0  0  0  0  0  0  0  0  0  0  0  0
   -1.2537   -0.7147   -0.4507 C   0  0  0  0  0  0  0  0  0  0  0  0
   -1.2551   -2.0250    0.0125 C   0  0  0  0  0  0  0  0  0  0  0  0
   -0.1044   -2.7517    0.0077 O   0  0  0  0  0  0  0  0  0  0  0  0
    0.1804   -3.5080   -1.1708 C   0  0  0  0  0  0  0  0  0  0  0  0
   -0.1020   -0.1562   -0.9103 O   0  0  0  0  0  0  0  0  0  0  0  0
   -0.1736    1.1963   -1.3658 C   0  0  0  0  0  0  0  0  0  0  0  0
   -4.8712    0.2637    0.0384 C   0  0  2  0  0  0  0  0  0  0  0  0
   -4.6351    1.3241    0.1275 H   0  0  0  0  0  0  0  0  0  0  0  0
   -5.7434   -0.1683    1.2044 C   0  0  0  0  0  0  0  0  0  0  0  0
   -5.3819    0.3279    2.4585 C   0  0  0  0  0  0  0  0  0  0  0  0
   -6.1565   -0.0324    3.5478 C   0  0  0  0  0  0  0  0  0  0  0  0
   -7.2723   -0.8695    3.3919 C   0  0  0  0  0  0  0  0  0  0  0  0
   -7.6229   -1.3601    2.1459 C   0  0  0  0  0  0  0  0  0  0  0  0
   -6.8323   -0.9991    1.0529 C   0  0  0  0  0  0  0  0  0  0  0  0
   -7.2358   -1.5900   -0.2866 C   0  0  1  0  0  0  0  0  0  0  0  0
   -8.0711   -1.0261   -0.7019 H   0  0  0  0  0  0  0  0  0  0  0  0
   -6.0407   -1.4964   -1.2162 C   0  0  2  0  0  0  0  0  0  0  0  0
   -5.2202   -2.1338   -0.8868 H   0  0  0  0  0  0  0  0  0  0  0  0
   -5.6449    0.0168   -1.2401 C   0  0  2  0  0  0  0  0  0  0  0  0
   -6.5338    0.6466   -1.2763 H   0  0  0  0  0  0  0  0  0  0  0  0
   -4.8681    0.0939   -2.5223 C   0  0  0  0  0  0  0  0  0  0  0  0
   -3.9698    0.8653   -2.7630 O   0  0  0  0  0  0  0  0  0  0  0  0
   -5.3498   -0.8527   -3.3612 O   0  0  0  0  0  0  0  0  0  0  0  0
   -6.3520   -1.6858   -2.7083 C   0  0  0  0  0  0  0  0  0  0  0  0
   -7.6124   -2.9581   -0.1179 O   0  0  0  0  0  0  0  0  0  0  0  0
   -7.8478   -1.0577    4.6012 O   0  0  0  0  0  0  0  0  0  0  0  0
   -6.8554   -0.6544    5.5678 C   0  0  0  0  0  0  0  0  0  0  0  0
   -6.0375    0.2962    4.8542 O   0  0  0  0  0  0  0  0  0  0  0  0
   -3.5594   -5.4258    1.7147 H   0  0  0  0  0  0  0  0  0  0  0  0
   -4.0518   -3.7913    2.2188 H   0  0  0  0  0  0  0  0  0  0  0  0
   -4.4206   -4.3644    0.5745 H   0  0  0  0  0  0  0  0  0  0  0  0
   -4.5223   -2.2870    0.8474 H   0  0  0  0  0  0  0  0  0  0  0  0
   -2.4259    1.0438   -0.7948 H   0  0  0  0  0  0  0  0  0  0  0  0
    1.1236   -4.0390   -1.0427 H   0  0  0  0  0  0  0  0  0  0  0  0
   -0.6206   -4.2268   -1.3436 H   0  0  0  0  0  0  0  0  0  0  0  0
    0.2553   -2.8352   -2.0251 H   0  0  0  0  0  0  0  0  0  0  0  0
   -0.8820    1.2647   -2.1914 H   0  0  0  0  0  0  0  0  0  0  0  0
   -0.5045    1.8377   -0.5490 H   0  0  0  0  0  0  0  0  0  0  0  0
    0.8112    1.5183   -1.7045 H   0  0  0  0  0  0  0  0  0  0  0  0
   -4.5237    0.9730    2.5752 H   0  0  0  0  0  0  0  0  0  0  0  0
   -8.4816   -2.0034    2.0228 H   0  0  0  0  0  0  0  0  0  0  0  0
   -6.2416   -2.7319   -2.9939 H   0  0  0  0  0  0  0  0  0  0  0  0
   -7.3548   -1.3271   -2.9400 H   0  0  0  0  0  0  0  0  0  0  0  0
   -8.3572   -3.0895    0.4848 H   0  0  0  0  0  0  0  0  0  0  0  0
   -7.3297   -0.1809    6.4274 H   0  0  0  0  0  0  0  0  0  0  0  0
   -6.2591   -1.5107    5.8829 H   0  0  0  0  0  0  0  0  0  0  0  0
  1  2  1  0  0  0  0
  1 35  1  0  0  0  0
  1 36  1  0  0  0  0
  1 37  1  0  0  0  0
  2  3  1  0  0  0  0
  3  8  2  0  0  0  0
  3  4  1  0  0  0  0
  4  5  2  0  0  0  0
  4 38  1  0  0  0  0
  5  6  1  0  0  0  0
  5 13  1  0  0  0  0
  6  7  2  0  0  0  0
  6 39  1  0  0  0  0
  7  8  1  0  0  0  0
  7 11  1  0  0  0  0
  8  9  1  0  0  0  0
  9 10  1  0  0  0  0
 10 40  1  0  0  0  0
 10 41  1  0  0  0  0
 10 42  1  0  0  0  0
 11 12  1  0  0  0  0
 12 43  1  0  0  0  0
 12 44  1  0  0  0  0
 12 45  1  0  0  0  0
 13 14  1  1  0  0  0
 13 25  1  0  0  0  0
 13 15  1  0  0  0  0
 15 20  2  0  0  0  0
 15 16  1  0  0  0  0
 16 17  2  0  0  0  0
 16 46  1  0  0  0  0
 17 34  1  0  0  0  0
 17 18  1  0  0  0  0
 18 19  2  0  0  0  0
 18 32  1  0  0  0  0
 19 20  1  0  0  0  0
 19 47  1  0  0  0  0
 20 21  1  0  0  0  0
 21 22  1  6  0  0  0
 21 23  1  0  0  0  0
 21 31  1  0  0  0  0
 23 24  1  1  0  0  0
 23 30  1  0  0  0  0
 23 25  1  0  0  0  0
 25 26  1  6  0  0  0
 25 27  1  0  0  0  0
 27 28  2  0  0  0  0
 27 29  1  0  0  0  0
 29 30  1  0  0  0  0
 30 48  1  0  0  0  0
 30 49  1  0  0  0  0
 31 50  1  0  0  0  0
 32 33  1  0  0  0  0
 33 34  1  0  0  0  0
 33 51  1  0  0  0  0
 33 52  1  0  0  0  0
M  END
$$$$
