ZINC01530856
 OpenBabel08292219463D

 33 34  0  0  1  0  0  0  0  0999 V2000
   -1.3428    0.0161    0.0193 C   0  0  0  0  0  0  0  0  0  0  0  0
    0.1775    0.1857   -0.0097 C   0  0  0  0  0  0  0  0  0  0  0  0
    0.7556   -0.5974   -1.1901 C   0  0  2  0  0  0  0  0  0  0  0  0
    0.4515   -2.0889   -1.0132 C   0  0  0  0  0  0  0  0  0  0  0  0
    1.1825   -2.5911    0.2365 C   0  0  0  0  0  0  0  0  0  0  0  0
    2.6512   -2.2853    0.1064 C   0  0  0  0  0  0  0  0  0  0  0  0
    3.4589   -3.0053    0.6529 O   0  0  0  0  0  0  0  0  0  0  0  0
    3.0831   -1.2319   -0.6029 N   0  0  0  0  0  0  0  0  0  0  0  0
    2.2476   -0.4000   -1.2426 C   0  0  0  0  0  0  0  0  0  0  0  0
    2.7023    0.5287   -1.8753 O   0  0  0  0  0  0  0  0  0  0  0  0
    0.1369   -0.1046   -2.4728 C   0  0  0  0  0  0  0  0  0  0  0  0
   -0.4869   -0.9971   -3.3252 C   0  0  0  0  0  0  0  0  0  0  0  0
   -1.0549   -0.5488   -4.5016 C   0  0  0  0  0  0  0  0  0  0  0  0
   -0.9991    0.8002   -4.8280 C   0  0  0  0  0  0  0  0  0  0  0  0
   -0.3717    1.6940   -3.9695 C   0  0  0  0  0  0  0  0  0  0  0  0
    0.1894    1.2399   -2.7920 C   0  0  0  0  0  0  0  0  0  0  0  0
   -1.5721    1.2569   -6.0171 N   0  0  0  0  0  0  0  0  0  0  0  0
   -1.7663    0.3745   -0.9189 H   0  0  0  0  0  0  0  0  0  0  0  0
   -1.5884   -1.0378    0.1498 H   0  0  0  0  0  0  0  0  0  0  0  0
   -1.7568    0.5909    0.8478 H   0  0  0  0  0  0  0  0  0  0  0  0
    0.4232    1.2420   -0.1192 H   0  0  0  0  0  0  0  0  0  0  0  0
    0.6030   -0.1918    0.9201 H   0  0  0  0  0  0  0  0  0  0  0  0
   -0.6222   -2.2316   -0.8913 H   0  0  0  0  0  0  0  0  0  0  0  0
    0.7997   -2.6396   -1.8870 H   0  0  0  0  0  0  0  0  0  0  0  0
    0.7828   -2.0902    1.1182 H   0  0  0  0  0  0  0  0  0  0  0  0
    1.0417   -3.6677    0.3329 H   0  0  0  0  0  0  0  0  0  0  0  0
    4.0372   -1.0651   -0.6554 H   0  0  0  0  0  0  0  0  0  0  0  0
   -0.5297   -2.0458   -3.0710 H   0  0  0  0  0  0  0  0  0  0  0  0
   -1.5417   -1.2464   -5.1670 H   0  0  0  0  0  0  0  0  0  0  0  0
   -0.3262    2.7434   -4.2205 H   0  0  0  0  0  0  0  0  0  0  0  0
    0.6735    1.9349   -2.1219 H   0  0  0  0  0  0  0  0  0  0  0  0
   -2.0097    0.6318   -6.6160 H   0  0  0  0  0  0  0  0  0  0  0  0
   -1.5325    2.1992   -6.2440 H   0  0  0  0  0  0  0  0  0  0  0  0
  1  2  1  0  0  0  0
  1 18  1  0  0  0  0
  1 19  1  0  0  0  0
  1 20  1  0  0  0  0
  2 21  1  0  0  0  0
  2 22  1  0  0  0  0
  3  2  1  1  0  0  0
  3  9  1  0  0  0  0
  3  4  1  0  0  0  0
  3 11  1  0  0  0  0
  4  5  1  0  0  0  0
  4 23  1  0  0  0  0
  4 24  1  0  0  0  0
  5  6  1  0  0  0  0
  5 25  1  0  0  0  0
  5 26  1  0  0  0  0
  6  7  2  0  0  0  0
  6  8  1  0  0  0  0
  8  9  1  0  0  0  0
  8 27  1  0  0  0  0
  9 10  2  0  0  0  0
 11 16  2  0  0  0  0
 11 12  1  0  0  0  0
 12 13  2  0  0  0  0
 12 28  1  0  0  0  0
 13 14  1  0  0  0  0
 13 29  1  0  0  0  0
 14 15  2  0  0  0  0
 14 17  1  0  0  0  0
 15 16  1  0  0  0  0
 15 30  1  0  0  0  0
 16 31  1  0  0  0  0
 17 32  1  0  0  0  0
 17 33  1  0  0  0  0
M  END
$$$$
