ZINC03915154
 OpenBabel08292219463D

 83 88  0  0  1  0  0  0  0  0999 V2000
    9.1150   -1.8407   -8.9215 C   0  0  0  0  0  0  0  0  0  0  0  0
    7.7919   -1.1881   -8.5158 C   0  0  0  0  0  0  0  0  0  0  0  0
    6.6399   -2.1562   -8.7925 C   0  0  0  0  0  0  0  0  0  0  0  0
    7.8260   -0.8547   -7.0466 C   0  0  0  0  0  0  0  0  0  0  0  0
    8.8078   -1.1125   -6.3912 O   0  0  0  0  0  0  0  0  0  0  0  0
    6.7657   -0.2713   -6.4659 O   0  0  0  0  0  0  0  0  0  0  0  0
    6.8689    0.0211   -5.0474 C   0  0  0  0  0  0  0  0  0  0  0  0
    5.5935    0.6696   -4.5742 C   0  0  0  0  0  0  0  0  0  0  0  0
    4.6908    0.8651   -5.3521 O   0  0  0  0  0  0  0  0  0  0  0  0
    5.4446    1.0740   -3.1301 C   0  0  1  0  0  0  0  0  0  0  0  0
    5.7843    2.5746   -2.8880 C   0  0  1  0  0  0  0  0  0  0  0  0
    6.0393    3.0976   -3.8097 H   0  0  0  0  0  0  0  0  0  0  0  0
    4.5499    3.1862   -2.1709 C   0  0  0  0  0  0  0  0  0  0  0  0
    3.8874    1.9683   -1.5179 C   0  0  2  0  0  0  0  0  0  0  0  0
    4.4358    1.6536   -0.6300 H   0  0  0  0  0  0  0  0  0  0  0  0
    4.0126    0.9029   -2.6396 C   0  0  2  0  0  0  0  0  0  0  0  0
    3.6628   -0.4391   -2.0254 C   0  0  0  0  0  0  0  0  0  0  0  0
    2.1855   -0.3764   -1.6065 C   0  0  1  0  0  0  0  0  0  0  0  0
    1.9112   -1.3168   -1.1283 H   0  0  0  0  0  0  0  0  0  0  0  0
    1.9241    0.7709   -0.6352 C   0  0  1  0  0  0  0  0  0  0  0  0
    2.4521    0.5622    0.2953 H   0  0  0  0  0  0  0  0  0  0  0  0
    2.4096    2.1145   -1.2016 C   0  0  1  0  0  0  0  0  0  0  0  0
    1.8600    2.3494   -2.1132 H   0  0  0  0  0  0  0  0  0  0  0  0
    2.2084    3.2152   -0.1584 C   0  0  0  0  0  0  0  0  0  0  0  0
    0.7132    3.3870    0.1282 C   0  0  0  0  0  0  0  0  0  0  0  0
    0.1548    2.0380    0.5410 C   0  0  0  0  0  0  0  0  0  0  0  0
   -0.5444    1.9487    1.6638 C   0  0  0  0  0  0  0  0  0  0  0  0
   -1.0837    0.6541    2.1081 C   0  0  0  0  0  0  0  0  0  0  0  0
   -1.7591    0.5745    3.1172 O   0  0  0  0  0  0  0  0  0  0  0  0
   -0.7880   -0.5433    1.3033 C   0  0  0  0  0  0  0  0  0  0  0  0
   -0.0943   -0.4293    0.1817 C   0  0  0  0  0  0  0  0  0  0  0  0
    0.4218    0.8628   -0.3522 C   0  0  2  0  0  0  0  0  0  0  0  0
   -0.2702    1.1262   -1.6911 C   0  0  0  0  0  0  0  0  0  0  0  0
    1.3778   -0.1946   -2.7712 O   0  0  0  0  0  0  0  0  0  0  0  0
    3.0354    1.2257   -3.7717 C   0  0  0  0  0  0  0  0  0  0  0  0
    6.8784    2.5518   -1.9486 O   0  0  0  0  0  0  0  0  0  0  0  0
    7.4740    1.2463   -2.1006 C   0  0  2  0  0  0  0  0  0  0  0  0
    8.1198    1.2230   -2.9784 H   0  0  0  0  0  0  0  0  0  0  0  0
    6.3533    0.3532   -2.2762 O   0  0  0  0  0  0  0  0  0  0  0  0
    8.2657    0.8690   -0.8469 C   0  0  0  0  0  0  0  0  0  0  0  0
    7.3555    0.9649    0.3791 C   0  0  0  0  0  0  0  0  0  0  0  0
    8.1472    0.5875    1.6328 C   0  0  0  0  0  0  0  0  0  0  0  0
    9.3281    1.5462    1.7981 C   0  0  0  0  0  0  0  0  0  0  0  0
   10.2383    1.4503    0.5720 C   0  0  0  0  0  0  0  0  0  0  0  0
    9.4466    1.8276   -0.6817 C   0  0  0  0  0  0  0  0  0  0  0  0
    9.2615   -2.7540   -8.3450 H   0  0  0  0  0  0  0  0  0  0  0  0
    9.0903   -2.0818   -9.9842 H   0  0  0  0  0  0  0  0  0  0  0  0
    9.9357   -1.1510   -8.7245 H   0  0  0  0  0  0  0  0  0  0  0  0
    7.6454   -0.2748   -9.0924 H   0  0  0  0  0  0  0  0  0  0  0  0
    6.7864   -3.0696   -8.2159 H   0  0  0  0  0  0  0  0  0  0  0  0
    5.6973   -1.6913   -8.5034 H   0  0  0  0  0  0  0  0  0  0  0  0
    6.6152   -2.3974   -9.8552 H   0  0  0  0  0  0  0  0  0  0  0  0
    7.6369    0.6419   -4.8901 H   0  0  0  0  0  0  0  0  0  0  0  0
    7.0317   -0.9051   -4.4964 H   0  0  0  0  0  0  0  0  0  0  0  0
    3.8767    3.6503   -2.8917 H   0  0  0  0  0  0  0  0  0  0  0  0
    4.8618    3.9064   -1.4146 H   0  0  0  0  0  0  0  0  0  0  0  0
    3.8072   -1.2320   -2.7592 H   0  0  0  0  0  0  0  0  0  0  0  0
    4.2898   -0.6226   -1.1528 H   0  0  0  0  0  0  0  0  0  0  0  0
    2.6152    4.1528   -0.5373 H   0  0  0  0  0  0  0  0  0  0  0  0
    2.7250    2.9418    0.7616 H   0  0  0  0  0  0  0  0  0  0  0  0
    0.2041    3.7371   -0.7698 H   0  0  0  0  0  0  0  0  0  0  0  0
    0.5733    4.1060    0.9354 H   0  0  0  0  0  0  0  0  0  0  0  0
   -0.7193    2.8337    2.2575 H   0  0  0  0  0  0  0  0  0  0  0  0
   -1.1368   -1.5127    1.6275 H   0  0  0  0  0  0  0  0  0  0  0  0
    0.1106   -1.3281   -0.3809 H   0  0  0  0  0  0  0  0  0  0  0  0
    0.3297    1.8202   -2.2798 H   0  0  0  0  0  0  0  0  0  0  0  0
   -0.3784    0.1878   -2.2350 H   0  0  0  0  0  0  0  0  0  0  0  0
   -1.2548    1.5582   -1.5124 H   0  0  0  0  0  0  0  0  0  0  0  0
    1.4880   -0.8861   -3.4381 H   0  0  0  0  0  0  0  0  0  0  0  0
    3.3904    2.0981   -4.3204 H   0  0  0  0  0  0  0  0  0  0  0  0
    2.9686    0.3736   -4.4481 H   0  0  0  0  0  0  0  0  0  0  0  0
    2.0510    1.4354   -3.3533 H   0  0  0  0  0  0  0  0  0  0  0  0
    8.6369   -0.1512   -0.9450 H   0  0  0  0  0  0  0  0  0  0  0  0
    6.9844    1.9850    0.4772 H   0  0  0  0  0  0  0  0  0  0  0  0
    6.5142    0.2819    0.2614 H   0  0  0  0  0  0  0  0  0  0  0  0
    8.5184   -0.4326    1.5348 H   0  0  0  0  0  0  0  0  0  0  0  0
    7.4988    0.6559    2.5063 H   0  0  0  0  0  0  0  0  0  0  0  0
    9.8921    1.2774    2.6912 H   0  0  0  0  0  0  0  0  0  0  0  0
    8.9569    2.5664    1.8961 H   0  0  0  0  0  0  0  0  0  0  0  0
   10.6095    0.4301    0.4740 H   0  0  0  0  0  0  0  0  0  0  0  0
   11.0796    2.1333    0.6897 H   0  0  0  0  0  0  0  0  0  0  0  0
   10.0951    1.7593   -1.5552 H   0  0  0  0  0  0  0  0  0  0  0  0
    9.0755    2.8478   -0.5837 H   0  0  0  0  0  0  0  0  0  0  0  0
  1  2  1  0  0  0  0
  1 46  1  0  0  0  0
  1 47  1  0  0  0  0
  1 48  1  0  0  0  0
  2  3  1  0  0  0  0
  2  4  1  0  0  0  0
  2 49  1  0  0  0  0
  3 50  1  0  0  0  0
  3 51  1  0  0  0  0
  3 52  1  0  0  0  0
  4  5  2  0  0  0  0
  4  6  1  0  0  0  0
  6  7  1  0  0  0  0
  7  8  1  0  0  0  0
  7 53  1  0  0  0  0
  7 54  1  0  0  0  0
  8  9  2  0  0  0  0
 10  8  1  6  0  0  0
 10 16  1  0  0  0  0
 10 39  1  0  0  0  0
 10 11  1  0  0  0  0
 11 12  1  6  0  0  0
 11 13  1  0  0  0  0
 11 36  1  0  0  0  0
 13 14  1  0  0  0  0
 13 55  1  0  0  0  0
 13 56  1  0  0  0  0
 14 15  1  1  0  0  0
 14 22  1  0  0  0  0
 14 16  1  0  0  0  0
 16 17  1  0  0  0  0
 16 35  1  6  0  0  0
 17 18  1  0  0  0  0
 17 57  1  0  0  0  0
 17 58  1  0  0  0  0
 18 19  1  1  0  0  0
 18 20  1  0  0  0  0
 18 34  1  0  0  0  0
 20 21  1  1  0  0  0
 20 32  1  0  0  0  0
 20 22  1  0  0  0  0
 22 23  1  6  0  0  0
 22 24  1  0  0  0  0
 24 25  1  0  0  0  0
 24 59  1  0  0  0  0
 24 60  1  0  0  0  0
 25 26  1  0  0  0  0
 25 61  1  0  0  0  0
 25 62  1  0  0  0  0
 26 32  1  0  0  0  0
 26 27  2  0  0  0  0
 27 28  1  0  0  0  0
 27 63  1  0  0  0  0
 28 29  2  0  0  0  0
 28 30  1  0  0  0  0
 30 31  2  0  0  0  0
 30 64  1  0  0  0  0
 31 32  1  0  0  0  0
 31 65  1  0  0  0  0
 32 33  1  6  0  0  0
 33 66  1  0  0  0  0
 33 67  1  0  0  0  0
 33 68  1  0  0  0  0
 34 69  1  0  0  0  0
 35 70  1  0  0  0  0
 35 71  1  0  0  0  0
 35 72  1  0  0  0  0
 36 37  1  0  0  0  0
 37 38  1  6  0  0  0
 37 39  1  0  0  0  0
 37 40  1  0  0  0  0
 40 45  1  0  0  0  0
 40 41  1  0  0  0  0
 40 73  1  0  0  0  0
 41 42  1  0  0  0  0
 41 74  1  0  0  0  0
 41 75  1  0  0  0  0
 42 43  1  0  0  0  0
 42 76  1  0  0  0  0
 42 77  1  0  0  0  0
 43 44  1  0  0  0  0
 43 78  1  0  0  0  0
 43 79  1  0  0  0  0
 44 45  1  0  0  0  0
 44 80  1  0  0  0  0
 44 81  1  0  0  0  0
 45 82  1  0  0  0  0
 45 83  1  0  0  0  0
M  END
$$$$
