ZINC00004785
 OpenBabel08292219463D

 31 33  0  0  0  0  0  0  0  0999 V2000
   -0.0158    1.3103    0.0092 C   0  0  0  0  0  0  0  0  0  0  0  0
    1.2504    2.0631    0.0012 C   0  0  0  0  0  0  0  0  0  0  0  0
    2.3957    1.4175   -0.0238 C   0  0  0  0  0  0  0  0  0  0  0  0
    2.4154   -0.0573   -0.0438 C   0  0  0  0  0  0  0  0  0  0  0  0
    1.2872   -0.7303   -0.0141 C   0  0  0  0  0  0  0  0  0  0  0  0
    0.0021   -0.0041    0.0020 C   0  0  0  0  0  0  0  0  0  0  0  0
    1.2853   -2.1955    0.0402 C   0  0  0  0  0  0  0  0  0  0  0  0
    2.1005   -2.9722   -0.5975 C   0  0  0  0  0  0  0  0  0  0  0  0
    3.1721   -2.5248   -1.4939 C   0  0  0  0  0  0  0  0  0  0  0  0
    3.4476   -3.2857   -2.7284 C   0  0  0  0  0  0  0  0  0  0  0  0
    4.4230   -2.9170   -3.5290 C   0  0  0  0  0  0  0  0  0  0  0  0
    5.2437   -1.7405   -3.1942 C   0  0  0  0  0  0  0  0  0  0  0  0
    4.9906   -1.0548   -2.1012 C   0  0  0  0  0  0  0  0  0  0  0  0
    3.8874   -1.4612   -1.2093 C   0  0  0  0  0  0  0  0  0  0  0  0
    3.5996   -0.7020   -0.1304 N   0  0  0  0  0  0  0  0  0  0  0  0
    4.5043   -0.5861    0.8716 C   0  0  0  0  0  0  0  0  0  0  0  0
    5.6365   -1.2001    0.7929 N   0  0  0  0  0  4  0  0  0  0  0  0
    4.2213    0.1713    1.9517 O   0  0  0  0  0  0  0  0  0  0  0  0
   -0.9580    1.8379    0.0256 H   0  0  0  0  0  0  0  0  0  0  0  0
    1.2381    3.1429    0.0155 H   0  0  0  0  0  0  0  0  0  0  0  0
    3.3245    1.9686   -0.0301 H   0  0  0  0  0  0  0  0  0  0  0  0
   -0.9270   -0.5547    0.0079 H   0  0  0  0  0  0  0  0  0  0  0  0
    0.5411   -2.6662    0.6654 H   0  0  0  0  0  0  0  0  0  0  0  0
    1.9826   -4.0367   -0.4581 H   0  0  0  0  0  0  0  0  0  0  0  0
    2.8462   -4.1483   -2.9745 H   0  0  0  0  0  0  0  0  0  0  0  0
    4.6222   -3.4759   -4.4314 H   0  0  0  0  0  0  0  0  0  0  0  0
    6.0521   -1.4418   -3.8451 H   0  0  0  0  0  0  0  0  0  0  0  0
    5.5919   -0.1920   -1.8553 H   0  0  0  0  0  0  0  0  0  0  0  0
    5.8400   -1.7447    0.0164 H   0  0  0  0  0  0  0  0  0  0  0  0
    3.3508    0.5911    1.9205 H   0  0  0  0  0  0  0  0  0  0  0  0
    6.2841   -1.1172    1.5103 H   0  0  0  0  0  0  0  0  0  0  0  0
  1  6  2  0  0  0  0
  1  2  1  0  0  0  0
  1 19  1  0  0  0  0
  2  3  2  0  0  0  0
  2 20  1  0  0  0  0
  3  4  1  0  0  0  0
  3 21  1  0  0  0  0
  4 15  1  0  0  0  0
  4  5  2  0  0  0  0
  5  6  1  0  0  0  0
  5  7  1  0  0  0  0
  6 22  1  0  0  0  0
  7  8  2  0  0  0  0
  7 23  1  0  0  0  0
  8  9  1  0  0  0  0
  8 24  1  0  0  0  0
  9 14  2  0  0  0  0
  9 10  1  0  0  0  0
 10 11  2  0  0  0  0
 10 25  1  0  0  0  0
 11 12  1  0  0  0  0
 11 26  1  0  0  0  0
 12 13  2  0  0  0  0
 12 27  1  0  0  0  0
 13 14  1  0  0  0  0
 13 28  1  0  0  0  0
 14 15  1  0  0  0  0
 15 16  1  0  0  0  0
 16 17  2  0  0  0  0
 16 18  1  0  0  0  0
 17 29  1  0  0  0  0
 17 31  1  0  0  0  0
 18 30  1  0  0  0  0
M  END
$$$$
