ZINC00896988
 OpenBabel08292219463D

 12 11  0  0  0  0  0  0  0  0999 V2000
   -2.8299    1.4897    2.4170 C   0  0  0  0  0  0  0  0  0  0  0  0
   -2.0695    1.0846    1.2770 O   0  0  0  0  0  0  0  0  0  0  0  0
   -0.7288    1.5792    1.2668 C   0  0  0  0  0  0  0  0  0  0  0  0
   -0.0127    1.0858    0.0080 C   0  0  0  0  0  0  0  0  0  0  0  0
    1.6788    1.7099   -0.0048 Cl  0  0  0  0  0  0  0  0  0  0  0  0
   -0.8847    1.6831   -1.4527 Cl  0  0  0  0  0  0  0  0  0  0  0  0
   -0.0522    1.1158    2.4002 F   0  0  0  0  0  0  0  0  0  0  0  0
   -0.7478    2.9781    1.2745 F   0  0  0  0  0  0  0  0  0  0  0  0
   -3.8351    1.0737    2.3498 H   0  0  0  0  0  0  0  0  0  0  0  0
   -2.3463    1.1268    3.3239 H   0  0  0  0  0  0  0  0  0  0  0  0
   -2.8882    2.5778    2.4469 H   0  0  0  0  0  0  0  0  0  0  0  0
    0.0021   -0.0041    0.0020 H   0  0  0  0  0  0  0  0  0  0  0  0
  1  2  1  0  0  0  0
  1  9  1  0  0  0  0
  1 10  1  0  0  0  0
  1 11  1  0  0  0  0
  2  3  1  0  0  0  0
  3  4  1  0  0  0  0
  3  7  1  0  0  0  0
  3  8  1  0  0  0  0
  4  5  1  0  0  0  0
  4  6  1  0  0  0  0
  4 12  1  0  0  0  0
M  END
$$$$
