ZINC00000609
 OpenBabel08292219463D

 29 30  0  0  1  0  0  0  0  0999 V2000
   -0.0187    1.5258    0.0104 C   0  0  0  0  0  0  0  0  0  0  0  0
    0.0021   -0.0041    0.0020 C   0  0  2  0  0  0  0  0  0  0  0  0
    0.5122   -0.3559   -0.8947 H   0  0  0  0  0  0  0  0  0  0  0  0
   -1.4338   -0.5343    0.0138 C   0  0  2  0  0  0  0  0  0  0  0  0
   -1.9566   -0.1498    0.8896 H   0  0  0  0  0  0  0  0  0  0  0  0
   -1.4083   -1.9636    0.0622 O   0  0  0  0  0  0  0  0  0  0  0  0
   -0.7067   -2.4871    1.1933 C   0  0  0  0  0  0  0  0  0  0  0  0
    0.7305   -1.9605    1.1837 C   0  0  0  0  0  0  0  0  0  0  0  0
    0.7119   -0.4912    1.1928 N   0  3  0  0  0  0  0  0  0  0  0  0
   -2.1466   -0.0847   -1.2355 C   0  0  0  0  0  0  0  0  0  0  0  0
   -2.0313   -0.8208   -2.3999 C   0  0  0  0  0  0  0  0  0  0  0  0
   -2.6852   -0.4084   -3.5459 C   0  0  0  0  0  0  0  0  0  0  0  0
   -3.4546    0.7398   -3.5274 C   0  0  0  0  0  0  0  0  0  0  0  0
   -3.5707    1.4754   -2.3628 C   0  0  0  0  0  0  0  0  0  0  0  0
   -2.9203    1.0607   -1.2156 C   0  0  0  0  0  0  0  0  0  0  0  0
    1.0039    1.9031    0.0027 H   0  0  0  0  0  0  0  0  0  0  0  0
   -0.5459    1.8868   -0.8726 H   0  0  0  0  0  0  0  0  0  0  0  0
   -0.5289    1.8773    0.9072 H   0  0  0  0  0  0  0  0  0  0  0  0
   -1.2047   -2.1694    2.1094 H   0  0  0  0  0  0  0  0  0  0  0  0
   -0.6958   -3.5758    1.1430 H   0  0  0  0  0  0  0  0  0  0  0  0
    1.2565   -2.3229    2.0669 H   0  0  0  0  0  0  0  0  0  0  0  0
    1.2405   -2.3118    0.2867 H   0  0  0  0  0  0  0  0  0  0  0  0
    1.6587   -0.1424    1.1863 H   0  0  0  0  0  0  0  0  0  0  0  0
   -1.4301   -1.7179   -2.4143 H   0  0  0  0  0  0  0  0  0  0  0  0
   -2.5945   -0.9831   -4.4558 H   0  0  0  0  0  0  0  0  0  0  0  0
   -3.9649    1.0624   -4.4229 H   0  0  0  0  0  0  0  0  0  0  0  0
   -4.1716    2.3727   -2.3484 H   0  0  0  0  0  0  0  0  0  0  0  0
   -3.0140    1.6333   -0.3047 H   0  0  0  0  0  0  0  0  0  0  0  0
    0.2391   -0.1661    2.0228 H   0  0  0  0  0  0  0  0  0  0  0  0
  1  2  1  0  0  0  0
  1 16  1  0  0  0  0
  1 17  1  0  0  0  0
  1 18  1  0  0  0  0
  2  3  1  6  0  0  0
  2  9  1  0  0  0  0
  2  4  1  0  0  0  0
  4  5  1  1  0  0  0
  4  6  1  0  0  0  0
  4 10  1  0  0  0  0
  6  7  1  0  0  0  0
  7  8  1  0  0  0  0
  7 19  1  0  0  0  0
  7 20  1  0  0  0  0
  8  9  1  0  0  0  0
  8 21  1  0  0  0  0
  8 22  1  0  0  0  0
  9 23  1  0  0  0  0
  9 29  1  0  0  0  0
 10 15  2  0  0  0  0
 10 11  1  0  0  0  0
 11 12  2  0  0  0  0
 11 24  1  0  0  0  0
 12 13  1  0  0  0  0
 12 25  1  0  0  0  0
 13 14  2  0  0  0  0
 13 26  1  0  0  0  0
 14 15  1  0  0  0  0
 14 27  1  0  0  0  0
 15 28  1  0  0  0  0
M  CHG  1   9   1
M  END
$$$$
