ZINC52955714
 OpenBabel08292219463D

 60 62  0  0  1  0  0  0  0  0999 V2000
    1.3987    1.3244   -5.1362 C   0  0  0  0  0  0  0  0  0  0  0  0
    1.0905   -0.1340   -4.7912 C   0  0  0  0  0  0  0  0  0  0  0  0
    2.2674   -0.9246   -4.9697 O   0  0  0  0  0  0  0  0  0  0  0  0
    2.1655   -2.2370   -4.7069 C   0  0  0  0  0  0  0  0  0  0  0  0
    1.1120   -2.6992   -4.3376 O   0  0  0  0  0  0  0  0  0  0  0  0
    3.3651   -3.1340   -4.8726 C   0  0  2  0  0  0  0  0  0  0  0  0
    4.1657   -2.7952   -4.2150 H   0  0  0  0  0  0  0  0  0  0  0  0
    3.8426   -3.0839   -6.3253 C   0  0  0  0  0  0  0  0  0  0  0  0
    5.1324   -3.8948   -6.4664 C   0  0  0  0  0  0  0  0  0  0  0  0
    5.6027   -3.8454   -7.8972 C   0  0  0  0  0  0  0  0  0  0  0  0
    5.1712   -4.7992   -8.8000 C   0  0  0  0  0  0  0  0  0  0  0  0
    5.6026   -4.7539  -10.1125 C   0  0  0  0  0  0  0  0  0  0  0  0
    6.4653   -3.7546  -10.5224 C   0  0  0  0  0  0  0  0  0  0  0  0
    6.8962   -2.8003   -9.6198 C   0  0  0  0  0  0  0  0  0  0  0  0
    6.4613   -2.8430   -8.3084 C   0  0  0  0  0  0  0  0  0  0  0  0
    2.9969   -4.5131   -4.5254 N   0  0  0  0  0  0  0  0  0  0  0  0
    3.1069   -4.7389   -3.0781 C   0  0  1  0  0  0  0  0  0  0  0  0
    3.9453   -4.1649   -2.6834 H   0  0  0  0  0  0  0  0  0  0  0  0
    1.8145   -4.2910   -2.3924 C   0  0  0  0  0  0  0  0  0  0  0  0
    3.3334   -6.2052   -2.8142 C   0  0  0  0  0  0  0  0  0  0  0  0
    2.8896   -7.0347   -3.5796 O   0  0  0  0  0  0  0  0  0  0  0  0
    4.0291   -6.5947   -1.7276 N   0  0  0  0  0  0  0  0  0  0  0  0
    4.5441   -5.7031   -0.6705 C   0  0  0  0  0  0  0  0  0  0  0  0
    5.1995   -6.5986    0.3718 C   0  0  0  0  0  0  0  0  0  0  0  0
    4.6100   -7.9925    0.1422 C   0  0  0  0  0  0  0  0  0  0  0  0
    4.3970   -7.9848   -1.3940 C   0  0  1  0  0  0  0  0  0  0  0  0
    5.3194   -8.2647   -1.9029 H   0  0  0  0  0  0  0  0  0  0  0  0
    3.2829   -8.9262   -1.7730 C   0  0  0  0  0  0  0  0  0  0  0  0
    2.1276   -8.5365   -1.7689 O   0  0  0  0  0  0  0  0  0  0  0  0
    3.5368  -10.0775   -2.0838 O   0  0  0  0  0  1  0  0  0  0  0  0
    7.0181   -6.6028    0.2291 S   0  0  0  0  0  0  0  0  0  0  0  0
    7.5204   -5.4282    1.5511 C   0  0  0  0  0  0  0  0  0  0  0  0
    6.5937   -5.7477    2.7527 C   0  0  0  0  0  0  0  0  0  0  0  0
    4.9143   -6.0098    2.0701 S   0  0  0  0  0  0  0  0  0  0  0  0
    2.1875    1.6939   -4.4809 H   0  0  0  0  0  0  0  0  0  0  0  0
    1.7271    1.3908   -6.1734 H   0  0  0  0  0  0  0  0  0  0  0  0
    0.5010    1.9275   -5.0000 H   0  0  0  0  0  0  0  0  0  0  0  0
    0.7620   -0.2004   -3.7539 H   0  0  0  0  0  0  0  0  0  0  0  0
    0.3017   -0.5035   -5.4464 H   0  0  0  0  0  0  0  0  0  0  0  0
    3.0754   -3.5055   -6.9747 H   0  0  0  0  0  0  0  0  0  0  0  0
    4.0312   -2.0488   -6.6102 H   0  0  0  0  0  0  0  0  0  0  0  0
    5.8995   -3.4732   -5.8170 H   0  0  0  0  0  0  0  0  0  0  0  0
    4.9438   -4.9298   -6.1814 H   0  0  0  0  0  0  0  0  0  0  0  0
    4.4972   -5.5800   -8.4797 H   0  0  0  0  0  0  0  0  0  0  0  0
    5.2660   -5.4995  -10.8176 H   0  0  0  0  0  0  0  0  0  0  0  0
    6.8030   -3.7196  -11.5476 H   0  0  0  0  0  0  0  0  0  0  0  0
    7.5704   -2.0197   -9.9400 H   0  0  0  0  0  0  0  0  0  0  0  0
    6.7950   -2.0953   -7.6041 H   0  0  0  0  0  0  0  0  0  0  0  0
    2.0698   -4.7341   -4.8565 H   0  0  0  0  0  0  0  0  0  0  0  0
    1.7149   -3.2088   -2.4763 H   0  0  0  0  0  0  0  0  0  0  0  0
    0.9627   -4.7726   -2.8726 H   0  0  0  0  0  0  0  0  0  0  0  0
    1.8452   -4.5725   -1.3399 H   0  0  0  0  0  0  0  0  0  0  0  0
    5.2797   -5.0153   -1.0876 H   0  0  0  0  0  0  0  0  0  0  0  0
    3.7233   -5.1448   -0.2202 H   0  0  0  0  0  0  0  0  0  0  0  0
    5.3149   -8.7695    0.4380 H   0  0  0  0  0  0  0  0  0  0  0  0
    3.6607   -8.1073    0.6653 H   0  0  0  0  0  0  0  0  0  0  0  0
    8.5632   -5.5899    1.8243 H   0  0  0  0  0  0  0  0  0  0  0  0
    7.3703   -4.4004    1.2207 H   0  0  0  0  0  0  0  0  0  0  0  0
    6.9361   -6.6510    3.2576 H   0  0  0  0  0  0  0  0  0  0  0  0
    6.5860   -4.9104    3.4505 H   0  0  0  0  0  0  0  0  0  0  0  0
  1  2  1  0  0  0  0
  1 35  1  0  0  0  0
  1 36  1  0  0  0  0
  1 37  1  0  0  0  0
  2  3  1  0  0  0  0
  2 38  1  0  0  0  0
  2 39  1  0  0  0  0
  3  4  1  0  0  0  0
  4  5  2  0  0  0  0
  4  6  1  0  0  0  0
  6  7  1  1  0  0  0
  6  8  1  0  0  0  0
  6 16  1  0  0  0  0
  8  9  1  0  0  0  0
  8 40  1  0  0  0  0
  8 41  1  0  0  0  0
  9 10  1  0  0  0  0
  9 42  1  0  0  0  0
  9 43  1  0  0  0  0
 10 15  2  0  0  0  0
 10 11  1  0  0  0  0
 11 12  2  0  0  0  0
 11 44  1  0  0  0  0
 12 13  1  0  0  0  0
 12 45  1  0  0  0  0
 13 14  2  0  0  0  0
 13 46  1  0  0  0  0
 14 15  1  0  0  0  0
 14 47  1  0  0  0  0
 15 48  1  0  0  0  0
 16 17  1  0  0  0  0
 16 49  1  0  0  0  0
 17 18  1  1  0  0  0
 17 19  1  0  0  0  0
 17 20  1  0  0  0  0
 19 50  1  0  0  0  0
 19 51  1  0  0  0  0
 19 52  1  0  0  0  0
 20 21  2  0  0  0  0
 20 22  1  0  0  0  0
 22 26  1  0  0  0  0
 22 23  1  0  0  0  0
 23 24  1  0  0  0  0
 23 53  1  0  0  0  0
 23 54  1  0  0  0  0
 24 34  1  0  0  0  0
 24 25  1  0  0  0  0
 24 31  1  0  0  0  0
 25 26  1  0  0  0  0
 25 55  1  0  0  0  0
 25 56  1  0  0  0  0
 26 27  1  6  0  0  0
 26 28  1  0  0  0  0
 28 29  2  0  0  0  0
 28 30  1  0  0  0  0
 31 32  1  0  0  0  0
 32 33  1  0  0  0  0
 32 57  1  0  0  0  0
 32 58  1  0  0  0  0
 33 34  1  0  0  0  0
 33 59  1  0  0  0  0
 33 60  1  0  0  0  0
M  END
$$$$
