ZINC00000853
 OpenBabel08292219463D

 45 46  0  0  1  0  0  0  0  0999 V2000
   -0.0178    1.4648    0.0101 C   0  0  0  0  0  0  0  0  0  0  0  0
    0.0021   -0.0041    0.0020 N   0  3  0  0  0  0  0  0  0  0  0  0
    0.7126   -0.4907    1.1921 C   0  0  0  0  0  0  0  0  0  0  0  0
   -1.3761   -0.5125    0.0124 C   0  0  0  0  0  0  0  0  0  0  0  0
   -2.0780   -0.1101   -1.2861 C   0  0  1  0  0  0  0  0  0  0  0  0
   -2.0144    0.9705   -1.4137 H   0  0  0  0  0  0  0  0  0  0  0  0
   -1.3995   -0.8041   -2.4688 C   0  0  0  0  0  0  0  0  0  0  0  0
   -2.1014   -0.4017   -3.7674 C   0  0  0  0  0  0  0  0  0  0  0  0
   -3.5711   -0.8221   -3.7042 C   0  0  0  0  0  0  0  0  0  0  0  0
   -4.2497   -0.1281   -2.5214 C   0  0  0  0  0  0  0  0  0  0  0  0
   -3.5477   -0.5306   -1.2229 C   0  0  2  0  0  0  0  0  0  0  0  0
   -4.2161    0.1530   -0.0579 C   0  0  0  0  0  0  0  0  0  0  0  0
   -3.7786    1.3977    0.3564 C   0  0  0  0  0  0  0  0  0  0  0  0
   -4.3896    2.0274    1.4247 C   0  0  0  0  0  0  0  0  0  0  0  0
   -5.4390    1.4140    2.0816 C   0  0  0  0  0  0  0  0  0  0  0  0
   -5.8796    0.1655    1.6680 C   0  0  0  0  0  0  0  0  0  0  0  0
   -5.2687   -0.4618    0.5916 C   0  0  0  0  0  0  0  0  0  0  0  0
   -6.9117   -0.4400    2.3124 O   0  0  0  0  0  0  0  0  0  0  0  0
   -7.4965    0.2669    3.4080 C   0  0  0  0  0  0  0  0  0  0  0  0
   -3.6311   -1.9473   -1.0556 O   0  0  0  0  0  0  0  0  0  0  0  0
    1.0047    1.8421    0.0024 H   0  0  0  0  0  0  0  0  0  0  0  0
   -0.5450    1.8259   -0.8730 H   0  0  0  0  0  0  0  0  0  0  0  0
   -0.5280    1.8163    0.9069 H   0  0  0  0  0  0  0  0  0  0  0  0
    0.2024   -0.1392    2.0889 H   0  0  0  0  0  0  0  0  0  0  0  0
    0.7273   -1.5806    1.1861 H   0  0  0  0  0  0  0  0  0  0  0  0
    1.7352   -0.1134    1.1844 H   0  0  0  0  0  0  0  0  0  0  0  0
   -1.3618   -1.5992    0.0961 H   0  0  0  0  0  0  0  0  0  0  0  0
   -1.9129   -0.0898    0.8617 H   0  0  0  0  0  0  0  0  0  0  0  0
   -0.3524   -0.5046   -2.5139 H   0  0  0  0  0  0  0  0  0  0  0  0
   -1.4631   -1.8847   -2.3413 H   0  0  0  0  0  0  0  0  0  0  0  0
   -2.0378    0.6790   -3.8950 H   0  0  0  0  0  0  0  0  0  0  0  0
   -1.6180   -0.8961   -4.6100 H   0  0  0  0  0  0  0  0  0  0  0  0
   -4.0712   -0.5354   -4.6293 H   0  0  0  0  0  0  0  0  0  0  0  0
   -3.6347   -1.9028   -3.5766 H   0  0  0  0  0  0  0  0  0  0  0  0
   -4.1861    0.9525   -2.6490 H   0  0  0  0  0  0  0  0  0  0  0  0
   -5.2967   -0.4277   -2.4764 H   0  0  0  0  0  0  0  0  0  0  0  0
   -2.9581    1.8786   -0.1553 H   0  0  0  0  0  0  0  0  0  0  0  0
   -4.0462    2.9995    1.7463 H   0  0  0  0  0  0  0  0  0  0  0  0
   -5.9155    1.9060    2.9166 H   0  0  0  0  0  0  0  0  0  0  0  0
   -5.6131   -1.4318    0.2646 H   0  0  0  0  0  0  0  0  0  0  0  0
   -7.8899    1.2207    3.0566 H   0  0  0  0  0  0  0  0  0  0  0  0
   -8.3067   -0.3263    3.8321 H   0  0  0  0  0  0  0  0  0  0  0  0
   -6.7389    0.4453    4.1712 H   0  0  0  0  0  0  0  0  0  0  0  0
   -4.5359   -2.2851   -1.0074 H   0  0  0  0  0  0  0  0  0  0  0  0
    0.4743   -0.3295   -0.8281 H   0  0  0  0  0  0  0  0  0  0  0  0
  1  2  1  0  0  0  0
  1 21  1  0  0  0  0
  1 22  1  0  0  0  0
  1 23  1  0  0  0  0
  2  3  1  0  0  0  0
  2  4  1  0  0  0  0
  2 45  1  0  0  0  0
  3 24  1  0  0  0  0
  3 25  1  0  0  0  0
  3 26  1  0  0  0  0
  4  5  1  0  0  0  0
  4 27  1  0  0  0  0
  4 28  1  0  0  0  0
  5  6  1  6  0  0  0
  5 11  1  0  0  0  0
  5  7  1  0  0  0  0
  7  8  1  0  0  0  0
  7 29  1  0  0  0  0
  7 30  1  0  0  0  0
  8  9  1  0  0  0  0
  8 31  1  0  0  0  0
  8 32  1  0  0  0  0
  9 10  1  0  0  0  0
  9 33  1  0  0  0  0
  9 34  1  0  0  0  0
 10 11  1  0  0  0  0
 10 35  1  0  0  0  0
 10 36  1  0  0  0  0
 11 12  1  0  0  0  0
 11 20  1  1  0  0  0
 12 17  2  0  0  0  0
 12 13  1  0  0  0  0
 13 14  2  0  0  0  0
 13 37  1  0  0  0  0
 14 15  1  0  0  0  0
 14 38  1  0  0  0  0
 15 16  2  0  0  0  0
 15 39  1  0  0  0  0
 16 17  1  0  0  0  0
 16 18  1  0  0  0  0
 17 40  1  0  0  0  0
 18 19  1  0  0  0  0
 19 41  1  0  0  0  0
 19 42  1  0  0  0  0
 19 43  1  0  0  0  0
 20 44  1  0  0  0  0
M  CHG  1   2   1
M  END
$$$$
