ZINC03830314
 OpenBabel08292219463D

 28 27  0  0  1  0  0  0  0  0999 V2000
   -0.0438    1.7102   -0.8797 C   0  0  0  0  0  0  0  0  0  0  0  0
   -0.0852    0.2131   -0.5665 C   0  0  2  0  0  0  0  0  0  0  0  0
    0.3191    0.0392    0.4307 H   0  0  0  0  0  0  0  0  0  0  0  0
    0.7532   -0.5467   -1.5964 C   0  0  0  0  0  0  0  0  0  0  0  0
    0.8440   -1.9602   -1.2070 N   0  3  0  0  0  0  0  0  0  0  0  0
   -0.4922   -2.5686   -1.2564 C   0  0  0  0  0  0  0  0  0  0  0  0
    1.7383   -2.6669   -2.1337 C   0  0  0  0  0  0  0  0  0  0  0  0
    1.3768   -2.0587    0.1584 C   0  0  0  0  0  0  0  0  0  0  0  0
   -1.4369   -0.2474   -0.6195 O   0  0  0  0  0  0  0  0  0  0  0  0
   -2.1452   -0.1967    0.5244 C   0  0  0  0  0  0  0  0  0  0  0  0
   -1.6297    0.2269    1.5399 O   0  0  0  0  0  0  0  0  0  0  0  0
   -3.4260   -0.6159    0.5431 N   0  0  0  0  0  0  0  0  0  0  0  0
    0.9873    2.0614   -0.8393 H   0  0  0  0  0  0  0  0  0  0  0  0
   -0.4481    1.8841   -1.8769 H   0  0  0  0  0  0  0  0  0  0  0  0
   -0.6411    2.2515   -0.1460 H   0  0  0  0  0  0  0  0  0  0  0  0
    0.2824   -0.4694   -2.5765 H   0  0  0  0  0  0  0  0  0  0  0  0
    1.7538   -0.1165   -1.6390 H   0  0  0  0  0  0  0  0  0  0  0  0
   -0.9549   -2.3516   -2.2191 H   0  0  0  0  0  0  0  0  0  0  0  0
   -0.4049   -3.6478   -1.1302 H   0  0  0  0  0  0  0  0  0  0  0  0
   -1.1082   -2.1579   -0.4564 H   0  0  0  0  0  0  0  0  0  0  0  0
    2.7298   -2.2155   -2.0971 H   0  0  0  0  0  0  0  0  0  0  0  0
    1.8058   -3.7158   -1.8447 H   0  0  0  0  0  0  0  0  0  0  0  0
    1.3431   -2.5939   -3.1469 H   0  0  0  0  0  0  0  0  0  0  0  0
    0.7132   -1.5343    0.8460 H   0  0  0  0  0  0  0  0  0  0  0  0
    1.4442   -3.1076    0.4474 H   0  0  0  0  0  0  0  0  0  0  0  0
    2.3682   -1.6073    0.1951 H   0  0  0  0  0  0  0  0  0  0  0  0
   -3.8375   -0.9540   -0.2676 H   0  0  0  0  0  0  0  0  0  0  0  0
   -3.9363   -0.5794    1.3672 H   0  0  0  0  0  0  0  0  0  0  0  0
  1  2  1  0  0  0  0
  1 13  1  0  0  0  0
  1 14  1  0  0  0  0
  1 15  1  0  0  0  0
  2  3  1  1  0  0  0
  2  4  1  0  0  0  0
  2  9  1  0  0  0  0
  4  5  1  0  0  0  0
  4 16  1  0  0  0  0
  4 17  1  0  0  0  0
  5  6  1  0  0  0  0
  5  7  1  0  0  0  0
  5  8  1  0  0  0  0
  6 18  1  0  0  0  0
  6 19  1  0  0  0  0
  6 20  1  0  0  0  0
  7 21  1  0  0  0  0
  7 22  1  0  0  0  0
  7 23  1  0  0  0  0
  8 24  1  0  0  0  0
  8 25  1  0  0  0  0
  8 26  1  0  0  0  0
  9 10  1  0  0  0  0
 10 11  2  0  0  0  0
 10 12  1  0  0  0  0
 12 27  1  0  0  0  0
 12 28  1  0  0  0  0
M  CHG  1   5   1
M  END
$$$$
