ZINC00089763
 OpenBabel08292219463D

 27 28  0  0  0  0  0  0  0  0999 V2000
   -0.0184    1.5028    0.0103 C   0  0  0  0  0  0  0  0  0  0  0  0
    0.0021   -0.0041    0.0020 C   0  0  0  0  0  0  0  0  0  0  0  0
   -1.0761   -0.8071    0.0026 C   0  0  0  0  0  0  0  0  0  0  0  0
   -0.6252   -2.1469   -0.0076 C   0  0  0  0  0  0  0  0  0  0  0  0
    0.6837   -2.1300   -0.0140 N   0  0  0  0  0  0  0  0  0  0  0  0
    1.0999   -0.7764   -0.0131 O   0  0  0  0  0  0  0  0  0  0  0  0
   -1.4296   -3.2817   -0.0100 N   0  0  0  0  0  2  0  0  0  0  0  0
   -0.7384   -4.7865   -0.0224 S   0  0  0  0  0  0  0  0  0  0  0  0
   -0.0749   -4.9184   -1.2721 O   0  0  0  0  0  0  0  0  0  0  0  0
   -0.0617   -4.9329    1.2185 O   0  0  0  0  0  0  0  0  0  0  0  0
   -2.0505   -5.9625   -0.0223 C   0  0  0  0  0  0  0  0  0  0  0  0
   -2.5617   -6.4257    1.1762 C   0  0  0  0  0  0  0  0  0  0  0  0
   -3.5901   -7.3474    1.1799 C   0  0  0  0  0  0  0  0  0  0  0  0
   -4.1111   -7.8093   -0.0221 C   0  0  0  0  0  0  0  0  0  0  0  0
   -3.5952   -7.3419   -1.2243 C   0  0  0  0  0  0  0  0  0  0  0  0
   -2.5706   -6.4160   -1.2207 C   0  0  0  0  0  0  0  0  0  0  0  0
   -5.1509   -8.7418   -0.0221 N   0  0  0  0  0  0  0  0  0  0  0  0
    1.0042    1.8801    0.0026 H   0  0  0  0  0  0  0  0  0  0  0  0
   -0.5455    1.8639   -0.8728 H   0  0  0  0  0  0  0  0  0  0  0  0
   -0.5286    1.8543    0.9071 H   0  0  0  0  0  0  0  0  0  0  0  0
   -2.1069   -0.4849    0.0099 H   0  0  0  0  0  0  0  0  0  0  0  0
   -2.1560   -6.0665    2.1104 H   0  0  0  0  0  0  0  0  0  0  0  0
   -3.9886   -7.7090    2.1163 H   0  0  0  0  0  0  0  0  0  0  0  0
   -3.9977   -7.6993   -2.1606 H   0  0  0  0  0  0  0  0  0  0  0  0
   -2.1721   -6.0489   -2.1550 H   0  0  0  0  0  0  0  0  0  0  0  0
   -5.5100   -9.0677    0.8180 H   0  0  0  0  0  0  0  0  0  0  0  0
   -5.5138   -9.0636   -0.8621 H   0  0  0  0  0  0  0  0  0  0  0  0
  1  2  1  0  0  0  0
  1 18  1  0  0  0  0
  1 19  1  0  0  0  0
  1 20  1  0  0  0  0
  2  6  1  0  0  0  0
  2  3  2  0  0  0  0
  3  4  1  0  0  0  0
  3 21  1  0  0  0  0
  4  5  2  0  0  0  0
  4  7  1  0  0  0  0
  5  6  1  0  0  0  0
  7  8  1  0  0  0  0
  8  9  2  0  0  0  0
  8 10  2  0  0  0  0
  8 11  1  0  0  0  0
 11 16  2  0  0  0  0
 11 12  1  0  0  0  0
 12 13  2  0  0  0  0
 12 22  1  0  0  0  0
 13 14  1  0  0  0  0
 13 23  1  0  0  0  0
 14 15  2  0  0  0  0
 14 17  1  0  0  0  0
 15 16  1  0  0  0  0
 15 24  1  0  0  0  0
 16 25  1  0  0  0  0
 17 26  1  0  0  0  0
 17 27  1  0  0  0  0
M  END
$$$$
