ZINC03882036
 OpenBabel08292219463D

 55 58  0  0  1  0  0  0  0  0999 V2000
   -0.7432    1.6593   -0.1670 C   0  0  0  0  0  0  0  0  0  0  0  0
   -0.9686    0.1462   -0.1417 C   0  0  2  0  0  0  0  0  0  0  0  0
   -2.2895   -0.1654    0.5354 C   0  0  0  0  0  0  0  0  0  0  0  0
   -2.2629    0.5097    1.9158 C   0  0  1  0  0  0  0  0  0  0  0  0
   -3.1869    0.2750    2.4442 H   0  0  0  0  0  0  0  0  0  0  0  0
   -1.0774    0.0372    2.7523 C   0  0  1  0  0  0  0  0  0  0  0  0
    0.2529    0.2199    2.0044 C   0  0  2  0  0  0  0  0  0  0  0  0
    0.4199    1.2783    1.8044 H   0  0  0  0  0  0  0  0  0  0  0  0
    0.1465   -0.5382    0.6939 C   0  0  2  0  0  0  0  0  0  0  0  0
   -0.1022   -1.5835    0.8771 H   0  0  0  0  0  0  0  0  0  0  0  0
    1.3543   -0.4176   -0.2419 C   0  0  0  0  0  0  0  0  0  0  0  0
    0.7496   -0.7463   -1.6342 C   0  0  2  0  0  0  0  0  0  0  0  0
    1.2140   -0.1248   -2.3999 H   0  0  0  0  0  0  0  0  0  0  0  0
   -0.7639   -0.4305   -1.5388 C   0  0  2  0  0  0  0  0  0  0  0  0
   -1.1526    0.5830   -2.5842 C   0  0  0  0  0  0  0  0  0  0  0  0
   -0.3193    1.3264   -3.0438 O   0  0  0  0  0  0  0  0  0  0  0  0
   -2.5813    0.6688   -3.0560 C   0  0  0  0  0  0  0  0  0  0  0  0
   -2.6968    1.6979   -4.0407 O   0  0  0  0  0  0  0  0  0  0  0  0
   -1.5300   -1.6262   -1.6980 O   0  0  0  0  0  0  0  0  0  0  0  0
    0.9451   -2.1284   -1.9399 O   0  0  0  0  0  0  0  0  0  0  0  0
    1.3993   -0.3317    2.8543 C   0  0  0  0  0  0  0  0  0  0  0  0
    1.5219    0.4852    4.1447 C   0  0  0  0  0  0  0  0  0  0  0  0
    0.1750    0.4694    4.8428 C   0  0  0  0  0  0  0  0  0  0  0  0
    0.1192    0.1223    6.1214 C   0  0  0  0  0  0  0  0  0  0  0  0
   -1.1703    0.0747    6.8278 C   0  0  0  0  0  0  0  0  0  0  0  0
   -1.2214   -0.2021    8.0117 O   0  0  0  0  0  0  0  0  0  0  0  0
   -2.3979    0.3701    6.0698 C   0  0  0  0  0  0  0  0  0  0  0  0
   -2.3177    0.7215    4.7960 C   0  0  0  0  0  0  0  0  0  0  0  0
   -1.0280    0.8373    4.0573 C   0  0  2  0  0  0  0  0  0  0  0  0
   -0.8737    2.3149    3.6912 C   0  0  0  0  0  0  0  0  0  0  0  0
   -1.2359   -1.3205    3.0504 F   0  0  0  0  0  0  0  0  0  0  0  0
   -2.1732    1.9251    1.7407 O   0  0  0  0  0  0  0  0  0  0  0  0
    0.1188    1.8878   -0.7937 H   0  0  0  0  0  0  0  0  0  0  0  0
   -1.6274    2.1516   -0.5719 H   0  0  0  0  0  0  0  0  0  0  0  0
   -0.5605    2.0165    0.8465 H   0  0  0  0  0  0  0  0  0  0  0  0
   -3.1133    0.2329   -0.0568 H   0  0  0  0  0  0  0  0  0  0  0  0
   -2.4018   -1.2434    0.6515 H   0  0  0  0  0  0  0  0  0  0  0  0
    1.7554    0.5958   -0.2251 H   0  0  0  0  0  0  0  0  0  0  0  0
    2.1232   -1.1424    0.0255 H   0  0  0  0  0  0  0  0  0  0  0  0
   -2.8781   -0.2855   -3.4911 H   0  0  0  0  0  0  0  0  0  0  0  0
   -3.2297    0.9001   -2.2109 H   0  0  0  0  0  0  0  0  0  0  0  0
   -3.5916    1.8095   -4.3898 H   0  0  0  0  0  0  0  0  0  0  0  0
   -1.4396   -2.0384   -2.5681 H   0  0  0  0  0  0  0  0  0  0  0  0
    1.8740   -2.3928   -1.9891 H   0  0  0  0  0  0  0  0  0  0  0  0
    1.1983   -1.3739    3.1023 H   0  0  0  0  0  0  0  0  0  0  0  0
    2.3314   -0.2657    2.2931 H   0  0  0  0  0  0  0  0  0  0  0  0
    2.2771    0.0395    4.7920 H   0  0  0  0  0  0  0  0  0  0  0  0
    1.8004    1.5115    3.9055 H   0  0  0  0  0  0  0  0  0  0  0  0
    1.0281   -0.1271    6.6486 H   0  0  0  0  0  0  0  0  0  0  0  0
   -3.3616    0.3004    6.5522 H   0  0  0  0  0  0  0  0  0  0  0  0
   -3.2374    0.9244    4.2675 H   0  0  0  0  0  0  0  0  0  0  0  0
   -1.8421    2.7194    3.3971 H   0  0  0  0  0  0  0  0  0  0  0  0
   -0.4965    2.8653    4.5531 H   0  0  0  0  0  0  0  0  0  0  0  0
   -0.1723    2.4125    2.8625 H   0  0  0  0  0  0  0  0  0  0  0  0
   -2.9106    2.3077    1.2457 H   0  0  0  0  0  0  0  0  0  0  0  0
  1 33  1  0  0  0  0
  1 34  1  0  0  0  0
  1 35  1  0  0  0  0
  2  1  1  6  0  0  0
  2  9  1  0  0  0  0
  2 14  1  0  0  0  0
  2  3  1  0  0  0  0
  3  4  1  0  0  0  0
  3 36  1  0  0  0  0
  3 37  1  0  0  0  0
  4  5  1  1  0  0  0
  4  6  1  0  0  0  0
  4 32  1  0  0  0  0
  6 29  1  0  0  0  0
  6  7  1  0  0  0  0
  6 31  1  1  0  0  0
  7  8  1  6  0  0  0
  7  9  1  0  0  0  0
  7 21  1  0  0  0  0
  9 10  1  1  0  0  0
  9 11  1  0  0  0  0
 11 12  1  0  0  0  0
 11 38  1  0  0  0  0
 11 39  1  0  0  0  0
 12 13  1  6  0  0  0
 12 14  1  0  0  0  0
 12 20  1  0  0  0  0
 14 15  1  6  0  0  0
 14 19  1  0  0  0  0
 15 16  2  0  0  0  0
 15 17  1  0  0  0  0
 17 18  1  0  0  0  0
 17 40  1  0  0  0  0
 17 41  1  0  0  0  0
 18 42  1  0  0  0  0
 19 43  1  0  0  0  0
 20 44  1  0  0  0  0
 21 22  1  0  0  0  0
 21 45  1  0  0  0  0
 21 46  1  0  0  0  0
 22 23  1  0  0  0  0
 22 47  1  0  0  0  0
 22 48  1  0  0  0  0
 23 29  1  0  0  0  0
 23 24  2  0  0  0  0
 24 25  1  0  0  0  0
 24 49  1  0  0  0  0
 25 26  2  0  0  0  0
 25 27  1  0  0  0  0
 27 28  2  0  0  0  0
 27 50  1  0  0  0  0
 28 29  1  0  0  0  0
 28 51  1  0  0  0  0
 29 30  1  6  0  0  0
 30 52  1  0  0  0  0
 30 53  1  0  0  0  0
 30 54  1  0  0  0  0
 32 55  1  0  0  0  0
M  END
$$$$
