ZINC09302201
 OpenBabel08292219463D

 49 49  0  0  0  0  0  0  0  0999 V2000
    1.4772    4.1544    3.5301 C   0  0  0  0  0  0  0  0  0  0  0  0
    0.2861    3.3154    3.1447 C   0  0  0  0  0  0  0  0  0  0  0  0
    0.4645    2.3468    2.2624 C   0  0  0  0  0  0  0  0  0  0  0  0
   -0.6344    1.4431    1.7841 C   0  0  0  0  0  0  0  0  0  0  0  0
   -1.8267    1.5123    2.7404 C   0  0  0  0  0  0  0  0  0  0  0  0
   -2.1717    2.9867    2.9834 C   0  0  0  0  0  0  0  0  0  0  0  0
   -1.0345    3.6226    3.7886 C   0  0  0  0  0  0  0  0  0  0  0  0
   -1.0788    1.8804    0.3869 C   0  0  0  0  0  0  0  0  0  0  0  0
   -0.1171    0.0046    1.7217 C   0  0  0  0  0  0  0  0  0  0  0  0
    1.7675    2.1505    1.7389 C   0  0  0  0  0  0  0  0  0  0  0  0
    2.7958    1.8456    2.5728 C   0  0  0  0  0  0  0  0  0  0  0  0
    2.5584    1.6738    3.9484 C   0  0  0  0  0  0  0  0  0  0  0  0
    1.6295    0.7695    4.3725 C   0  0  0  0  0  0  0  0  0  0  0  0
    1.3927    0.5982    5.7447 C   0  0  0  0  0  0  0  0  0  0  0  0
    0.5387   -0.3773    6.1737 C   0  0  0  0  0  0  0  0  0  0  0  0
    0.0048   -1.2950    5.2568 C   0  0  0  0  0  0  0  0  0  0  0  0
   -1.3432   -1.3545    5.0580 C   0  0  0  0  0  0  0  0  0  0  0  0
   -2.1934   -0.4412    5.7139 C   0  0  0  0  0  0  0  0  0  0  0  0
   -1.7195    0.4636    6.3767 O   0  0  0  0  0  0  0  0  0  0  0  0
    0.9206   -2.2150    4.4914 C   0  0  0  0  0  0  0  0  0  0  0  0
    3.3303    2.4890    4.9537 C   0  0  0  0  0  0  0  0  0  0  0  0
    1.5204    5.0382    2.8936 H   0  0  0  0  0  0  0  0  0  0  0  0
    2.3890    3.5707    3.4035 H   0  0  0  0  0  0  0  0  0  0  0  0
    1.3839    4.4611    4.5718 H   0  0  0  0  0  0  0  0  0  0  0  0
   -2.6826    1.0046    2.2958 H   0  0  0  0  0  0  0  0  0  0  0  0
   -1.5659    1.0367    3.6859 H   0  0  0  0  0  0  0  0  0  0  0  0
   -2.2798    3.4997    2.0278 H   0  0  0  0  0  0  0  0  0  0  0  0
   -3.1019    3.0570    3.5472 H   0  0  0  0  0  0  0  0  0  0  0  0
   -1.0418    3.2276    4.8045 H   0  0  0  0  0  0  0  0  0  0  0  0
   -1.1778    4.7026    3.8220 H   0  0  0  0  0  0  0  0  0  0  0  0
   -0.2168    1.8962   -0.2801 H   0  0  0  0  0  0  0  0  0  0  0  0
   -1.8206    1.1788    0.0054 H   0  0  0  0  0  0  0  0  0  0  0  0
   -1.5154    2.8777    0.4400 H   0  0  0  0  0  0  0  0  0  0  0  0
   -0.1146   -0.4244    2.7238 H   0  0  0  0  0  0  0  0  0  0  0  0
   -0.7651   -0.5869    1.0749 H   0  0  0  0  0  0  0  0  0  0  0  0
    0.8970    0.0001    1.3221 H   0  0  0  0  0  0  0  0  0  0  0  0
    1.9426    2.2433    0.6772 H   0  0  0  0  0  0  0  0  0  0  0  0
    3.7955    1.7350    2.1794 H   0  0  0  0  0  0  0  0  0  0  0  0
    1.0764    0.1853    3.6520 H   0  0  0  0  0  0  0  0  0  0  0  0
    1.8859    1.2377    6.4618 H   0  0  0  0  0  0  0  0  0  0  0  0
    0.2744   -0.4422    7.2188 H   0  0  0  0  0  0  0  0  0  0  0  0
   -1.7593   -2.1014    4.3982 H   0  0  0  0  0  0  0  0  0  0  0  0
    0.9980   -3.1682    5.0144 H   0  0  0  0  0  0  0  0  0  0  0  0
    0.5174   -2.3804    3.4923 H   0  0  0  0  0  0  0  0  0  0  0  0
    1.9089   -1.7618    4.4138 H   0  0  0  0  0  0  0  0  0  0  0  0
    2.7574    3.3780    5.2174 H   0  0  0  0  0  0  0  0  0  0  0  0
    3.5058    1.8913    5.8482 H   0  0  0  0  0  0  0  0  0  0  0  0
    4.2860    2.7873    4.5227 H   0  0  0  0  0  0  0  0  0  0  0  0
   -3.5335   -0.5698    5.6072 O   0  0  0  0  0  1  0  0  0  0  0  0
  1  2  1  0  0  0  0
  1 22  1  0  0  0  0
  1 23  1  0  0  0  0
  1 24  1  0  0  0  0
  2  7  1  0  0  0  0
  2  3  2  0  0  0  0
  3  4  1  0  0  0  0
  3 10  1  0  0  0  0
  4  5  1  0  0  0  0
  4  8  1  0  0  0  0
  4  9  1  0  0  0  0
  5  6  1  0  0  0  0
  5 25  1  0  0  0  0
  5 26  1  0  0  0  0
  6  7  1  0  0  0  0
  6 27  1  0  0  0  0
  6 28  1  0  0  0  0
  7 29  1  0  0  0  0
  7 30  1  0  0  0  0
  8 31  1  0  0  0  0
  8 32  1  0  0  0  0
  8 33  1  0  0  0  0
  9 34  1  0  0  0  0
  9 35  1  0  0  0  0
  9 36  1  0  0  0  0
 10 11  2  0  0  0  0
 10 37  1  0  0  0  0
 11 12  1  0  0  0  0
 11 38  1  0  0  0  0
 12 13  2  0  0  0  0
 12 21  1  0  0  0  0
 13 14  1  0  0  0  0
 13 39  1  0  0  0  0
 14 15  2  0  0  0  0
 14 40  1  0  0  0  0
 15 16  1  0  0  0  0
 15 41  1  0  0  0  0
 16 17  2  0  0  0  0
 16 20  1  0  0  0  0
 17 18  1  0  0  0  0
 17 42  1  0  0  0  0
 18 19  2  0  0  0  0
 18 49  1  0  0  0  0
 20 43  1  0  0  0  0
 20 44  1  0  0  0  0
 20 45  1  0  0  0  0
 21 46  1  0  0  0  0
 21 47  1  0  0  0  0
 21 48  1  0  0  0  0
M  END
$$$$
