ZINC00001590
 OpenBabel08292219463D

 17 17  0  0  0  0  0  0  0  0999 V2000
   -0.0169    1.3940    0.0097 C   0  0  0  0  0  0  0  0  0  0  0  0
    1.1821    2.0801    0.0019 C   0  0  0  0  0  0  0  0  0  0  0  0
    2.3313    1.4346   -0.0129 N   0  0  0  0  0  0  0  0  0  0  0  0
    2.3939    0.1180   -0.0206 C   0  0  0  0  0  0  0  0  0  0  0  0
    1.2436   -0.6470   -0.0138 C   0  0  0  0  0  0  0  0  0  0  0  0
    0.0021   -0.0041    0.0020 C   0  0  0  0  0  0  0  0  0  0  0  0
   -1.2583   -0.7826    0.0104 C   0  0  0  0  0  0  0  0  0  0  0  0
   -2.3282   -0.2066    0.0241 O   0  0  0  0  0  0  0  0  0  0  0  0
   -1.2184   -2.1297    0.0027 N   0  0  0  0  0  0  0  0  0  0  0  0
   -2.3805   -2.8476    0.0104 N   0  0  0  0  0  0  0  0  0  0  0  0
   -0.9547    1.9293    0.0260 H   0  0  0  0  0  0  0  0  0  0  0  0
    1.1778    3.1601    0.0078 H   0  0  0  0  0  0  0  0  0  0  0  0
    3.3576   -0.3693   -0.0328 H   0  0  0  0  0  0  0  0  0  0  0  0
    1.3024   -1.7253   -0.0208 H   0  0  0  0  0  0  0  0  0  0  0  0
   -0.3643   -2.5896   -0.0082 H   0  0  0  0  0  0  0  0  0  0  0  0
   -2.9724   -2.5858   -0.7637 H   0  0  0  0  0  0  0  0  0  0  0  0
   -2.1932   -3.8390    0.0032 H   0  0  0  0  0  0  0  0  0  0  0  0
  1  6  2  0  0  0  0
  1  2  1  0  0  0  0
  1 11  1  0  0  0  0
  2  3  2  0  0  0  0
  2 12  1  0  0  0  0
  3  4  1  0  0  0  0
  4  5  2  0  0  0  0
  4 13  1  0  0  0  0
  5  6  1  0  0  0  0
  5 14  1  0  0  0  0
  6  7  1  0  0  0  0
  7  8  2  0  0  0  0
  7  9  1  0  0  0  0
  9 10  1  0  0  0  0
  9 15  1  0  0  0  0
 10 16  1  0  0  0  0
 10 17  1  0  0  0  0
M  END
$$$$
