ZINC12503197
 OpenBabel08292219463D

 48 51  0  0  1  0  0  0  0  0999 V2000
   -1.5550    1.9943    1.0706 C   0  0  0  0  0  0  0  0  0  0  0  0
   -1.3946    0.5512    0.8758 N   0  0  0  0  0  0  0  0  0  0  0  0
   -1.4740   -0.0791   -0.3385 C   0  0  0  0  0  0  0  0  0  0  0  0
   -1.7013    0.3392   -1.6458 C   0  0  0  0  0  0  0  0  0  0  0  0
   -1.7170   -0.5779   -2.6591 C   0  0  0  0  0  0  0  0  0  0  0  0
   -1.5086   -1.9271   -2.4032 C   0  0  0  0  0  0  0  0  0  0  0  0
   -1.2833   -2.3653   -1.1279 C   0  0  0  0  0  0  0  0  0  0  0  0
   -1.2628   -1.4479   -0.0813 C   0  0  0  0  0  0  0  0  0  0  0  0
   -1.0610   -1.5190    1.3718 C   0  0  0  0  0  0  0  0  0  0  0  0
   -1.1560   -0.2855    1.8198 N   0  0  0  0  0  0  0  0  0  0  0  0
   -0.7989   -2.7307    2.1691 C   0  0  0  0  0  0  0  0  0  0  0  0
   -0.7315   -3.8151    1.6229 O   0  0  0  0  0  0  0  0  0  0  0  0
   -0.6342   -2.6368    3.5034 N   0  0  0  0  0  0  0  0  0  0  0  0
   -0.3717   -3.8503    4.3019 C   0  0  1  0  0  0  0  0  0  0  0  0
    1.1171   -4.1596    4.2385 C   0  0  0  0  0  0  0  0  0  0  0  0
    1.5740   -5.1421    5.3028 C   0  0  1  0  0  0  0  0  0  0  0  0
    2.0983   -5.9724    4.8195 H   0  0  0  0  0  0  0  0  0  0  0  0
    2.5643   -4.4447    6.2478 C   0  0  0  0  0  0  0  0  0  0  0  0
    1.8448   -3.3204    6.9954 C   0  0  0  0  0  0  0  0  0  0  0  0
    0.6242   -3.8800    7.7289 C   0  0  0  0  0  0  0  0  0  0  0  0
   -0.2842   -4.6067    6.7252 C   0  0  1  0  0  0  0  0  0  0  0  0
   -1.1168   -5.0456    7.2845 H   0  0  0  0  0  0  0  0  0  0  0  0
   -0.8350   -3.5996    5.7299 C   0  0  0  0  0  0  0  0  0  0  0  0
    0.4799   -5.6803    6.1025 N   0  3  1  0  0  0  0  0  0  0  0  0
   -0.3546   -6.6190    5.3652 C   0  0  0  0  0  0  0  0  0  0  0  0
   -0.5849    2.4832    0.9803 H   0  0  0  0  0  0  0  0  0  0  0  0
   -2.2330    2.3899    0.3144 H   0  0  0  0  0  0  0  0  0  0  0  0
   -1.9663    2.1836    2.0621 H   0  0  0  0  0  0  0  0  0  0  0  0
   -1.8653    1.3851   -1.8591 H   0  0  0  0  0  0  0  0  0  0  0  0
   -1.8943   -0.2491   -3.6725 H   0  0  0  0  0  0  0  0  0  0  0  0
   -1.5249   -2.6357   -3.2181 H   0  0  0  0  0  0  0  0  0  0  0  0
   -1.1225   -3.4155   -0.9340 H   0  0  0  0  0  0  0  0  0  0  0  0
   -0.6880   -1.7718    3.9391 H   0  0  0  0  0  0  0  0  0  0  0  0
   -0.9501   -4.6583    3.8486 H   0  0  0  0  0  0  0  0  0  0  0  0
    1.3554   -4.5687    3.2471 H   0  0  0  0  0  0  0  0  0  0  0  0
    1.6813   -3.2240    4.3449 H   0  0  0  0  0  0  0  0  0  0  0  0
    2.9492   -5.1735    6.9600 H   0  0  0  0  0  0  0  0  0  0  0  0
    3.3857   -4.0330    5.6634 H   0  0  0  0  0  0  0  0  0  0  0  0
    2.5293   -2.8749    7.7212 H   0  0  0  0  0  0  0  0  0  0  0  0
    1.5296   -2.5522    6.2889 H   0  0  0  0  0  0  0  0  0  0  0  0
    0.9453   -4.5845    8.4945 H   0  0  0  0  0  0  0  0  0  0  0  0
    0.0672   -3.0652    8.1889 H   0  0  0  0  0  0  0  0  0  0  0  0
   -0.5284   -2.5897    6.0331 H   0  0  0  0  0  0  0  0  0  0  0  0
   -1.9327   -3.6273    5.7618 H   0  0  0  0  0  0  0  0  0  0  0  0
    0.2223   -7.5147    5.1350 H   0  0  0  0  0  0  0  0  0  0  0  0
   -1.2195   -6.8895    5.9709 H   0  0  0  0  0  0  0  0  0  0  0  0
   -0.6911   -6.1553    4.4380 H   0  0  0  0  0  0  0  0  0  0  0  0
    0.9153   -6.2122    6.8708 H   0  0  0  0  0  0  0  0  0  0  0  0
  1  2  1  0  0  0  0
  1 26  1  0  0  0  0
  1 27  1  0  0  0  0
  1 28  1  0  0  0  0
  2 10  1  0  0  0  0
  2  3  1  0  0  0  0
  3  8  2  0  0  0  0
  3  4  1  0  0  0  0
  4  5  2  0  0  0  0
  4 29  1  0  0  0  0
  5  6  1  0  0  0  0
  5 30  1  0  0  0  0
  6  7  2  0  0  0  0
  6 31  1  0  0  0  0
  7  8  1  0  0  0  0
  7 32  1  0  0  0  0
  8  9  1  0  0  0  0
  9 10  2  0  0  0  0
  9 11  1  0  0  0  0
 11 12  2  0  0  0  0
 11 13  1  0  0  0  0
 13 14  1  0  0  0  0
 13 33  1  0  0  0  0
 14 23  1  0  0  0  0
 14 15  1  0  0  0  0
 14 34  1  6  0  0  0
 15 16  1  0  0  0  0
 15 35  1  0  0  0  0
 15 36  1  0  0  0  0
 16 17  1  6  0  0  0
 16 24  1  0  0  0  0
 16 18  1  0  0  0  0
 18 19  1  0  0  0  0
 18 37  1  0  0  0  0
 18 38  1  0  0  0  0
 19 20  1  0  0  0  0
 19 39  1  0  0  0  0
 19 40  1  0  0  0  0
 20 21  1  0  0  0  0
 20 41  1  0  0  0  0
 20 42  1  0  0  0  0
 21 22  1  1  0  0  0
 21 23  1  0  0  0  0
 21 24  1  0  0  0  0
 23 43  1  0  0  0  0
 23 44  1  0  0  0  0
 24 25  1  0  0  0  0
 24 48  1  1  0  0  0
 25 45  1  0  0  0  0
 25 46  1  0  0  0  0
 25 47  1  0  0  0  0
M  CHG  1  24   1
M  END
$$$$
