ZINC03978005
 OpenBabel08292219463D

 81 88  0  0  1  0  0  0  0  0999 V2000
   -0.9248   -1.2460    4.7258 C   0  0  0  0  0  0  0  0  0  0  0  0
   -1.4139   -0.9404    3.3087 C   0  0  2  0  0  0  0  0  0  0  0  0
   -0.7622    0.3221    2.7862 C   0  0  0  0  0  0  0  0  0  0  0  0
    0.4062    0.6269    2.8998 O   0  0  0  0  0  0  0  0  0  0  0  0
   -1.7226    1.0475    2.1698 N   0  0  0  0  0  0  0  0  0  0  0  0
   -1.5197    2.3411    1.5128 C   0  0  2  0  0  0  0  0  0  0  0  0
   -0.7075    2.8759    2.0051 H   0  0  0  0  0  0  0  0  0  0  0  0
   -2.7842    3.1522    1.6060 C   0  0  0  0  0  0  0  0  0  0  0  0
   -2.7660    4.3220    1.2864 O   0  0  0  0  0  0  0  0  0  0  0  0
   -3.9293    2.6058    2.0360 N   0  0  0  0  0  0  0  0  0  0  0  0
   -5.2632    3.2317    1.9827 C   0  0  0  0  0  0  0  0  0  0  0  0
   -6.2951    2.0871    1.9484 C   0  0  0  0  0  0  0  0  0  0  0  0
   -5.4564    0.7884    2.0216 C   0  0  0  0  0  0  0  0  0  0  0  0
   -4.1257    1.2785    2.6357 C   0  0  1  0  0  0  0  0  0  0  0  0
   -4.2269    1.3705    3.7170 H   0  0  0  0  0  0  0  0  0  0  0  0
   -2.9939    0.3319    2.2894 C   0  0  2  0  0  0  0  0  0  0  0  0
   -2.8266   -0.6570    3.3171 O   0  0  0  0  0  0  0  0  0  0  0  0
   -3.2757   -0.3145    1.0465 O   0  0  0  0  0  0  0  0  0  0  0  0
   -1.1649    2.1162    0.0416 C   0  0  0  0  0  0  0  0  0  0  0  0
   -0.8172    3.4354   -0.5986 C   0  0  0  0  0  0  0  0  0  0  0  0
   -1.7779    4.1359   -1.3037 C   0  0  0  0  0  0  0  0  0  0  0  0
   -1.4574    5.3430   -1.8962 C   0  0  0  0  0  0  0  0  0  0  0  0
   -0.1763    5.8498   -1.7832 C   0  0  0  0  0  0  0  0  0  0  0  0
    0.7844    5.1493   -1.0780 C   0  0  0  0  0  0  0  0  0  0  0  0
    0.4639    3.9422   -0.4856 C   0  0  0  0  0  0  0  0  0  0  0  0
   -1.1264   -2.0675    2.4180 N   0  0  0  0  0  0  0  0  0  0  0  0
    0.1399   -2.5056    2.2727 C   0  0  0  0  0  0  0  0  0  0  0  0
    1.0517   -1.9144    2.8113 O   0  0  0  0  0  0  0  0  0  0  0  0
    0.4228   -3.7300    1.4409 C   0  0  2  0  0  0  0  0  0  0  0  0
   -0.1813   -4.5626    1.8013 H   0  0  0  0  0  0  0  0  0  0  0  0
    1.9070   -4.0894    1.5482 C   0  0  0  0  0  0  0  0  0  0  0  0
    2.1965   -5.3123    0.6526 C   0  0  2  0  0  0  0  0  0  0  0  0
    1.6045   -6.1590    1.0001 H   0  0  0  0  0  0  0  0  0  0  0  0
    3.6516   -5.6604    0.7371 C   0  0  0  0  0  0  0  0  0  0  0  0
    4.4956   -5.4992    1.7899 C   0  0  0  0  0  0  0  0  0  0  0  0
    5.8304   -5.8892    1.6893 C   0  0  0  0  0  0  0  0  0  0  0  0
    6.3950   -6.4544    0.5537 C   0  0  0  0  0  0  0  0  0  0  0  0
    5.5554   -6.6316   -0.5446 C   0  0  0  0  0  0  0  0  0  0  0  0
    4.2236   -6.2239   -0.4061 C   0  0  0  0  0  0  0  0  0  0  0  0
    3.5309   -6.4819   -1.6686 C   0  0  0  0  0  0  0  0  0  0  0  0
    4.4385   -7.0226   -2.4667 C   0  0  0  0  0  0  0  0  0  0  0  0
    5.6565   -7.1229   -1.8110 N   0  0  0  0  0  0  0  0  0  0  0  0
    6.4658   -7.4905   -2.1994 H   0  0  0  0  0  0  0  0  0  0  0  0
    2.0712   -6.1206   -1.7712 C   0  0  0  0  0  0  0  0  0  0  0  0
    1.7975   -4.9757   -0.7849 C   0  0  1  0  0  0  0  0  0  0  0  0
    2.3691   -4.1043   -1.1043 H   0  0  0  0  0  0  0  0  0  0  0  0
    0.0787   -3.4445   -0.0229 C   0  0  0  0  0  0  0  0  0  0  0  0
   -0.0795   -4.4479   -2.2201 C   0  0  0  0  0  0  0  0  0  0  0  0
   -1.4404   -2.1279    5.1058 H   0  0  0  0  0  0  0  0  0  0  0  0
    0.1490   -1.4328    4.7072 H   0  0  0  0  0  0  0  0  0  0  0  0
   -1.1344   -0.3951    5.3739 H   0  0  0  0  0  0  0  0  0  0  0  0
   -5.4207    3.8484    2.8676 H   0  0  0  0  0  0  0  0  0  0  0  0
   -5.3528    3.8413    1.0836 H   0  0  0  0  0  0  0  0  0  0  0  0
   -6.9642    2.1547    2.8062 H   0  0  0  0  0  0  0  0  0  0  0  0
   -6.8658    2.1195    1.0203 H   0  0  0  0  0  0  0  0  0  0  0  0
   -5.9349    0.0553    2.6709 H   0  0  0  0  0  0  0  0  0  0  0  0
   -5.2967    0.3747    1.0258 H   0  0  0  0  0  0  0  0  0  0  0  0
   -2.5916   -0.9362    0.7626 H   0  0  0  0  0  0  0  0  0  0  0  0
   -2.0177    1.6754   -0.4746 H   0  0  0  0  0  0  0  0  0  0  0  0
   -0.3107    1.4426   -0.0273 H   0  0  0  0  0  0  0  0  0  0  0  0
   -2.7788    3.7400   -1.3920 H   0  0  0  0  0  0  0  0  0  0  0  0
   -2.2081    5.8907   -2.4466 H   0  0  0  0  0  0  0  0  0  0  0  0
    0.0740    6.7932   -2.2455 H   0  0  0  0  0  0  0  0  0  0  0  0
    1.7853    5.5453   -0.9897 H   0  0  0  0  0  0  0  0  0  0  0  0
    1.2145    3.3949    0.0654 H   0  0  0  0  0  0  0  0  0  0  0  0
   -1.8474   -2.4984    1.9328 H   0  0  0  0  0  0  0  0  0  0  0  0
    2.5111   -3.2422    1.2236 H   0  0  0  0  0  0  0  0  0  0  0  0
    2.1484   -4.3342    2.5826 H   0  0  0  0  0  0  0  0  0  0  0  0
    4.1305   -5.0663    2.7095 H   0  0  0  0  0  0  0  0  0  0  0  0
    6.4661   -5.7418    2.5498 H   0  0  0  0  0  0  0  0  0  0  0  0
    7.4353   -6.7428    0.5228 H   0  0  0  0  0  0  0  0  0  0  0  0
    4.2565   -7.3396   -3.4830 H   0  0  0  0  0  0  0  0  0  0  0  0
    1.4513   -6.9809   -1.5189 H   0  0  0  0  0  0  0  0  0  0  0  0
    1.8519   -5.7924   -2.7872 H   0  0  0  0  0  0  0  0  0  0  0  0
   -0.9799   -3.1984   -0.1061 H   0  0  0  0  0  0  0  0  0  0  0  0
    0.6761   -2.6055   -0.3797 H   0  0  0  0  0  0  0  0  0  0  0  0
    0.4848   -3.6364   -2.6797 H   0  0  0  0  0  0  0  0  0  0  0  0
    0.0845   -5.3678   -2.7813 H   0  0  0  0  0  0  0  0  0  0  0  0
   -1.1413   -4.2020   -2.2278 H   0  0  0  0  0  0  0  0  0  0  0  0
    0.3539   -4.6570   -0.8234 N   0  3  1  0  0  0  0  0  0  0  0  0
   -0.1714   -5.4446   -0.4258 H   0  0  0  0  0  0  0  0  0  0  0  0
  1 49  1  0  0  0  0
  1 50  1  0  0  0  0
  1 51  1  0  0  0  0
  2  1  1  1  0  0  0
  2 17  1  0  0  0  0
  2  3  1  0  0  0  0
  2 26  1  0  0  0  0
  3  4  2  0  0  0  0
  3  5  1  0  0  0  0
  5 16  1  0  0  0  0
  5  6  1  0  0  0  0
  6  7  1  1  0  0  0
  6  8  1  0  0  0  0
  6 19  1  0  0  0  0
  8  9  2  0  0  0  0
  8 10  1  0  0  0  0
 10 14  1  0  0  0  0
 10 11  1  0  0  0  0
 11 12  1  0  0  0  0
 11 52  1  0  0  0  0
 11 53  1  0  0  0  0
 12 13  1  0  0  0  0
 12 54  1  0  0  0  0
 12 55  1  0  0  0  0
 13 14  1  0  0  0  0
 13 56  1  0  0  0  0
 13 57  1  0  0  0  0
 14 15  1  1  0  0  0
 14 16  1  0  0  0  0
 16 17  1  0  0  0  0
 16 18  1  6  0  0  0
 18 58  1  0  0  0  0
 19 20  1  0  0  0  0
 19 59  1  0  0  0  0
 19 60  1  0  0  0  0
 20 25  2  0  0  0  0
 20 21  1  0  0  0  0
 21 22  2  0  0  0  0
 21 61  1  0  0  0  0
 22 23  1  0  0  0  0
 22 62  1  0  0  0  0
 23 24  2  0  0  0  0
 23 63  1  0  0  0  0
 24 25  1  0  0  0  0
 24 64  1  0  0  0  0
 25 65  1  0  0  0  0
 26 27  1  0  0  0  0
 26 66  1  0  0  0  0
 27 28  2  0  0  0  0
 27 29  1  0  0  0  0
 29 30  1  1  0  0  0
 29 47  1  0  0  0  0
 29 31  1  0  0  0  0
 31 32  1  0  0  0  0
 31 67  1  0  0  0  0
 31 68  1  0  0  0  0
 32 33  1  1  0  0  0
 32 45  1  0  0  0  0
 32 34  1  0  0  0  0
 34 39  2  0  0  0  0
 34 35  1  0  0  0  0
 35 36  2  0  0  0  0
 35 69  1  0  0  0  0
 36 37  1  0  0  0  0
 36 70  1  0  0  0  0
 37 38  2  0  0  0  0
 37 71  1  0  0  0  0
 38 42  1  0  0  0  0
 38 39  1  0  0  0  0
 39 40  1  0  0  0  0
 40 41  2  0  0  0  0
 40 44  1  0  0  0  0
 41 42  1  0  0  0  0
 41 72  1  0  0  0  0
 42 43  1  0  0  0  0
 44 45  1  0  0  0  0
 44 73  1  0  0  0  0
 44 74  1  0  0  0  0
 45 46  1  6  0  0  0
 45 80  1  0  0  0  0
 47 75  1  0  0  0  0
 47 76  1  0  0  0  0
 47 80  1  0  0  0  0
 48 77  1  0  0  0  0
 48 78  1  0  0  0  0
 48 79  1  0  0  0  0
 48 80  1  0  0  0  0
 80 81  1  1  0  0  0
M  CHG  1  80   1
M  END
$$$$
