ZINC00020259
 OpenBabel08292219463D

 28 28  0  0  1  0  0  0  0  0999 V2000
   -0.0187    1.5258    0.0104 C   0  0  0  0  0  0  0  0  0  0  0  0
    0.0021   -0.0041    0.0020 C   0  0  1  0  0  0  0  0  0  0  0  0
    0.5293   -0.3651    0.8851 H   0  0  0  0  0  0  0  0  0  0  0  0
   -1.4333   -0.5336    0.0129 C   0  0  2  0  0  0  0  0  0  0  0  0
   -1.9435   -0.1821    0.9097 H   0  0  0  0  0  0  0  0  0  0  0  0
   -1.4129   -2.0405    0.0046 C   0  0  0  0  0  0  0  0  0  0  0  0
   -1.2013   -2.7224   -1.1791 C   0  0  0  0  0  0  0  0  0  0  0  0
   -1.1825   -4.1045   -1.1867 C   0  0  0  0  0  0  0  0  0  0  0  0
   -1.3749   -4.8049   -0.0105 C   0  0  0  0  0  0  0  0  0  0  0  0
   -1.5856   -4.1230    1.1733 C   0  0  0  0  0  0  0  0  0  0  0  0
   -1.6001   -2.7408    1.1817 C   0  0  0  0  0  0  0  0  0  0  0  0
   -2.1245   -0.0603   -1.1448 O   0  0  0  0  0  0  0  0  0  0  0  0
    0.6897   -0.4778   -1.2066 N   0  3  0  0  0  0  0  0  0  0  0  0
    2.1002   -0.0703   -1.1590 C   0  0  0  0  0  0  0  0  0  0  0  0
    1.0039    1.9031    0.0027 H   0  0  0  0  0  0  0  0  0  0  0  0
   -0.5459    1.8868   -0.8726 H   0  0  0  0  0  0  0  0  0  0  0  0
   -0.5289    1.8773    0.9072 H   0  0  0  0  0  0  0  0  0  0  0  0
   -1.0510   -2.1752   -2.0981 H   0  0  0  0  0  0  0  0  0  0  0  0
   -1.0179   -4.6373   -2.1117 H   0  0  0  0  0  0  0  0  0  0  0  0
   -1.3610   -5.8848   -0.0166 H   0  0  0  0  0  0  0  0  0  0  0  0
   -1.7363   -4.6702    2.0922 H   0  0  0  0  0  0  0  0  0  0  0  0
   -1.7610   -2.2080    2.1072 H   0  0  0  0  0  0  0  0  0  0  0  0
   -1.7251   -0.3356   -1.9813 H   0  0  0  0  0  0  0  0  0  0  0  0
    0.6317   -1.4840   -1.2540 H   0  0  0  0  0  0  0  0  0  0  0  0
    2.6104   -0.4218   -2.0558 H   0  0  0  0  0  0  0  0  0  0  0  0
    2.1628    1.0167   -1.1079 H   0  0  0  0  0  0  0  0  0  0  0  0
    2.5740   -0.5034   -0.2781 H   0  0  0  0  0  0  0  0  0  0  0  0
    0.2511   -0.0769   -2.0221 H   0  0  0  0  0  0  0  0  0  0  0  0
  1  2  1  0  0  0  0
  1 15  1  0  0  0  0
  1 16  1  0  0  0  0
  1 17  1  0  0  0  0
  2  3  1  1  0  0  0
  2  4  1  0  0  0  0
  2 13  1  0  0  0  0
  4  5  1  1  0  0  0
  4  6  1  0  0  0  0
  4 12  1  0  0  0  0
  6 11  2  0  0  0  0
  6  7  1  0  0  0  0
  7  8  2  0  0  0  0
  7 18  1  0  0  0  0
  8  9  1  0  0  0  0
  8 19  1  0  0  0  0
  9 10  2  0  0  0  0
  9 20  1  0  0  0  0
 10 11  1  0  0  0  0
 10 21  1  0  0  0  0
 11 22  1  0  0  0  0
 12 23  1  0  0  0  0
 13 14  1  0  0  0  0
 13 24  1  0  0  0  0
 13 28  1  0  0  0  0
 14 25  1  0  0  0  0
 14 26  1  0  0  0  0
 14 27  1  0  0  0  0
M  CHG  1  13   1
M  END
$$$$
