ZINC04577910
 OpenBabel08292219463D

 18 18  0  0  0  0  0  0  0  0999 V2000
   -0.0178    1.4608    0.0101 C   0  0  0  0  0  0  0  0  0  0  0  0
    0.0021   -0.0041    0.0020 N   0  0  0  0  0  0  0  0  0  0  0  0
    0.0055   -0.6604   -1.1709 C   0  0  0  0  0  3  0  0  0  0  0  0
    0.0238   -2.0207   -1.2102 C   0  0  0  0  0  0  0  0  0  0  0  0
    0.0398   -2.7514   -0.0225 C   0  0  0  0  0  0  0  0  0  0  0  0
    0.0367   -2.0746    1.1849 C   0  0  0  0  0  0  0  0  0  0  0  0
    0.0225   -0.6811    1.1816 C   0  0  0  0  0  0  0  0  0  0  0  0
    0.0245    0.0549    2.4493 C   0  0  0  0  0  0  0  0  0  0  0  0
    0.0440   -0.5924    3.5769 N   0  0  0  0  0  0  0  0  0  0  0  0
    0.0459    0.1186    4.8014 O   0  5  0  0  0  0  0  0  0  0  0  0
    1.0048    1.8381    0.0023 H   0  0  0  0  0  0  0  0  0  0  0  0
   -0.5450    1.8219   -0.8730 H   0  0  0  0  0  0  0  0  0  0  0  0
   -0.5280    1.8123    0.9069 H   0  0  0  0  0  0  0  0  0  0  0  0
   -0.0068   -0.1009   -2.0946 H   0  0  0  0  0  0  0  0  0  0  0  0
    0.0256   -2.5339   -2.1604 H   0  0  0  0  0  0  0  0  0  0  0  0
    0.0540   -3.8311   -0.0445 H   0  0  0  0  0  0  0  0  0  0  0  0
    0.0485   -2.6193    2.1174 H   0  0  0  0  0  0  0  0  0  0  0  0
    0.0097    1.1348    2.4468 H   0  0  0  0  0  0  0  0  0  0  0  0
  1  2  1  0  0  0  0
  1 11  1  0  0  0  0
  1 12  1  0  0  0  0
  1 13  1  0  0  0  0
  2  7  1  0  0  0  0
  2  3  1  0  0  0  0
  3  4  1  0  0  0  0
  3 14  1  0  0  0  0
  4  5  2  0  0  0  0
  4 15  1  0  0  0  0
  5  6  1  0  0  0  0
  5 16  1  0  0  0  0
  6  7  2  0  0  0  0
  6 17  1  0  0  0  0
  7  8  1  0  0  0  0
  8  9  2  0  0  0  0
  8 18  1  0  0  0  0
  9 10  1  0  0  0  0
M  CHG  1  10  -1
M  END
$$$$
