ZINC19364242
 OpenBabel08292219463D

 33 32  0  0  0  0  0  0  0  0999 V2000
    0.6238    0.2932    0.0773 C   0  0  0  0  0  0  0  0  0  0  0  0
    0.3983   -1.0938   -0.5278 C   0  0  0  0  0  0  0  0  0  0  0  0
   -1.0277   -1.2680   -0.8350 N   0  3  0  0  0  0  0  0  0  0  0  0
   -1.4115   -0.3499   -1.9156 C   0  0  0  0  0  0  0  0  0  0  0  0
   -2.8978   -0.4402   -2.1472 C   0  0  0  0  0  0  0  0  0  0  0  0
   -3.5747   -1.1990   -1.4745 O   0  0  0  0  0  0  0  0  0  0  0  0
   -3.4235    0.2456   -3.0074 O   0  0  0  0  0  1  0  0  0  0  0  0
   -1.2714   -2.6530   -1.2595 C   0  0  0  0  0  0  0  0  0  0  0  0
   -1.0325   -3.5837   -0.0986 C   0  0  0  0  0  0  0  0  0  0  0  0
   -0.8039   -3.1297    1.0096 O   0  0  0  0  0  0  0  0  0  0  0  0
   -1.0678   -4.7907   -0.2675 O   0  0  0  0  0  1  0  0  0  0  0  0
    2.0238    0.4196    0.5040 N   0  0  0  0  0  0  0  0  0  0  0  0
    2.9309    0.3906   -0.6511 C   0  0  0  0  0  0  0  0  0  0  0  0
    2.5818    1.5145   -1.5923 C   0  0  0  0  0  0  0  0  0  0  0  0
    1.7234    2.3236   -1.2838 O   0  0  0  0  0  0  0  0  0  0  0  0
    3.1577    1.6148   -2.6622 O   0  0  0  0  0  1  0  0  0  0  0  0
    2.2237    1.6380    1.2999 C   0  0  0  0  0  0  0  0  0  0  0  0
    3.5246    1.5377    2.0539 C   0  0  0  0  0  0  0  0  0  0  0  0
    4.1798    0.5107    2.0052 O   0  0  0  0  0  0  0  0  0  0  0  0
    3.9219    2.4836    2.7126 O   0  0  0  0  0  1  0  0  0  0  0  0
    0.4012    1.0559   -0.6690 H   0  0  0  0  0  0  0  0  0  0  0  0
   -0.0317    0.4250    0.9382 H   0  0  0  0  0  0  0  0  0  0  0  0
    0.9816   -1.1899   -1.4436 H   0  0  0  0  0  0  0  0  0  0  0  0
    0.7123   -1.8565    0.1847 H   0  0  0  0  0  0  0  0  0  0  0  0
   -1.1486    0.6703   -1.6361 H   0  0  0  0  0  0  0  0  0  0  0  0
   -0.8841   -0.6236   -2.8294 H   0  0  0  0  0  0  0  0  0  0  0  0
   -2.3024   -2.7529   -1.5991 H   0  0  0  0  0  0  0  0  0  0  0  0
   -0.5941   -2.9077   -2.0747 H   0  0  0  0  0  0  0  0  0  0  0  0
    3.9589    0.5093   -0.3089 H   0  0  0  0  0  0  0  0  0  0  0  0
    2.8284   -0.5627   -1.1697 H   0  0  0  0  0  0  0  0  0  0  0  0
    2.2532    2.5036    0.6380 H   0  0  0  0  0  0  0  0  0  0  0  0
    1.4016    1.7491    2.0069 H   0  0  0  0  0  0  0  0  0  0  0  0
   -1.5760   -1.0670   -0.0122 H   0  0  0  0  0  0  0  0  0  0  0  0
  1  2  1  0  0  0  0
  1 12  1  0  0  0  0
  1 21  1  0  0  0  0
  1 22  1  0  0  0  0
  2  3  1  0  0  0  0
  2 23  1  0  0  0  0
  2 24  1  0  0  0  0
  3  4  1  0  0  0  0
  3  8  1  0  0  0  0
  3 33  1  0  0  0  0
  4  5  1  0  0  0  0
  4 25  1  0  0  0  0
  4 26  1  0  0  0  0
  5  6  2  0  0  0  0
  5  7  1  0  0  0  0
  8  9  1  0  0  0  0
  8 27  1  0  0  0  0
  8 28  1  0  0  0  0
  9 10  2  0  0  0  0
  9 11  1  0  0  0  0
 12 13  1  0  0  0  0
 12 17  1  0  0  0  0
 13 14  1  0  0  0  0
 13 29  1  0  0  0  0
 13 30  1  0  0  0  0
 14 15  2  0  0  0  0
 14 16  1  0  0  0  0
 17 18  1  0  0  0  0
 17 31  1  0  0  0  0
 17 32  1  0  0  0  0
 18 19  2  0  0  0  0
 18 20  1  0  0  0  0
M  CHG  1   3   1
M  END
$$$$
