ZINC03830496
 OpenBabel08292219463D

 35 36  0  0  1  0  0  0  0  0999 V2000
   -2.0944   -4.4087    0.2160 C   0  0  0  0  0  0  0  0  0  0  0  0
   -2.2285   -2.9077    0.2084 C   0  0  0  0  0  0  0  0  0  0  0  0
   -3.3243   -2.3991    0.1871 O   0  0  0  0  0  0  0  0  0  0  0  0
   -1.1305   -2.1357    0.2254 O   0  0  0  0  0  0  0  0  0  0  0  0
   -1.3302   -0.7027    0.1029 C   0  0  0  0  0  0  0  0  0  0  0  0
    0.0077   -0.0144    0.0187 C   0  0  0  0  0  0  0  0  0  0  0  0
   -0.0214    1.3103    0.0075 C   0  0  0  0  0  0  0  0  0  0  0  0
    1.1692    2.0468   -0.0173 N   0  0  0  0  0  0  0  0  0  0  0  0
    2.5261    1.5568   -0.3895 C   0  0  1  0  0  0  0  0  0  0  0  0
    2.7208    1.5164   -1.4612 H   0  0  0  0  0  0  0  0  0  0  0  0
    3.1460    2.7469    0.3206 C   0  0  1  0  0  0  0  0  0  0  0  0
    3.8232    3.3374   -0.2966 H   0  0  0  0  0  0  0  0  0  0  0  0
    1.6904    3.2235    0.3071 C   0  0  0  0  0  0  0  0  0  0  0  0
    1.1870    4.3076    0.5137 O   0  0  0  0  0  0  0  0  0  0  0  0
    3.6810    2.4472    1.6511 N   0  0  0  0  0  0  0  0  0  0  0  0
    4.6636    3.2100    2.1698 C   0  0  0  0  0  0  0  0  0  0  0  0
    5.1048    4.1446    1.5352 O   0  0  0  0  0  0  0  0  0  0  0  0
    5.2139    2.9016    3.5384 C   0  0  0  0  0  0  0  0  0  0  0  0
    6.2688    3.8722    3.8732 C   0  0  0  0  0  0  0  0  0  0  0  0
    7.0828    4.6212    4.1315 N   0  0  0  0  0  0  0  0  0  0  0  0
    2.7254   -0.0493    0.4543 S   0  0  0  0  0  0  0  0  0  0  0  0
    1.2016   -0.9111   -0.0423 C   0  0  0  0  0  0  0  0  0  0  0  0
   -1.3168    2.0137    0.0152 C   0  0  0  0  0  0  0  0  0  0  0  0
   -1.3501    3.2244    0.1128 O   0  0  0  0  0  0  0  0  0  0  0  0
   -1.6462   -4.7287    1.1566 H   0  0  0  0  0  0  0  0  0  0  0  0
   -3.0801   -4.8620    0.1103 H   0  0  0  0  0  0  0  0  0  0  0  0
   -1.4601   -4.7210   -0.6136 H   0  0  0  0  0  0  0  0  0  0  0  0
   -1.8734   -0.3359    0.9739 H   0  0  0  0  0  0  0  0  0  0  0  0
   -1.9048   -0.4917   -0.7990 H   0  0  0  0  0  0  0  0  0  0  0  0
    3.3281    1.6997    2.1586 H   0  0  0  0  0  0  0  0  0  0  0  0
    4.4132    2.9667    4.2751 H   0  0  0  0  0  0  0  0  0  0  0  0
    5.6315    1.8948    3.5437 H   0  0  0  0  0  0  0  0  0  0  0  0
    1.0418   -1.7602    0.6223 H   0  0  0  0  0  0  0  0  0  0  0  0
    1.3180   -1.2779   -1.0621 H   0  0  0  0  0  0  0  0  0  0  0  0
   -2.4642    1.3140   -0.0860 O   0  0  0  0  0  1  0  0  0  0  0  0
  1  2  1  0  0  0  0
  1 25  1  0  0  0  0
  1 26  1  0  0  0  0
  1 27  1  0  0  0  0
  2  3  2  0  0  0  0
  2  4  1  0  0  0  0
  4  5  1  0  0  0  0
  5  6  1  0  0  0  0
  5 28  1  0  0  0  0
  5 29  1  0  0  0  0
  6 22  1  0  0  0  0
  6  7  2  0  0  0  0
  7  8  1  0  0  0  0
  7 23  1  0  0  0  0
  8 13  1  0  0  0  0
  8  9  1  0  0  0  0
  9 10  1  6  0  0  0
  9 11  1  0  0  0  0
  9 21  1  0  0  0  0
 11 12  1  6  0  0  0
 11 13  1  0  0  0  0
 11 15  1  0  0  0  0
 13 14  2  0  0  0  0
 15 16  1  0  0  0  0
 15 30  1  0  0  0  0
 16 17  2  0  0  0  0
 16 18  1  0  0  0  0
 18 19  1  0  0  0  0
 18 31  1  0  0  0  0
 18 32  1  0  0  0  0
 19 20  3  0  0  0  0
 21 22  1  0  0  0  0
 22 33  1  0  0  0  0
 22 34  1  0  0  0  0
 23 24  2  0  0  0  0
 23 35  1  0  0  0  0
M  END
$$$$
