ZINC03813083
 OpenBabel08292219463D

 51 53  0  0  1  0  0  0  0  0999 V2000
    1.3308    2.6624    1.9799 C   0  0  0  0  0  0  0  0  0  0  0  0
    1.0763    1.2925    1.5147 N   0  3  0  0  0  0  0  0  0  0  0  0
    1.7295    1.0890    0.2161 C   0  0  0  0  0  0  0  0  0  0  0  0
    1.4004   -0.3092   -0.3112 C   0  0  0  0  0  0  0  0  0  0  0  0
    1.9052   -1.3566    0.6856 C   0  0  0  0  0  0  0  0  0  0  0  0
    1.2741   -1.0894    2.0551 C   0  0  2  0  0  0  0  0  0  0  0  0
    0.1925   -1.2055    1.9864 H   0  0  0  0  0  0  0  0  0  0  0  0
    1.6079    0.3378    2.4947 C   0  0  0  0  0  0  0  0  0  0  0  0
    1.7940   -2.0174    3.0093 O   0  0  0  0  0  0  0  0  0  0  0  0
    1.1310   -3.1751    3.1573 C   0  0  0  0  0  0  0  0  0  0  0  0
    0.1420   -3.3933    2.4984 O   0  0  0  0  0  0  0  0  0  0  0  0
    1.6202   -4.2027    4.1451 C   0  0  0  0  0  0  0  0  0  0  0  0
    0.4676   -5.0714    4.5785 C   0  0  0  0  0  0  0  0  0  0  0  0
   -0.1525   -5.9034    3.6652 C   0  0  0  0  0  0  0  0  0  0  0  0
   -1.2098   -6.7003    4.0628 C   0  0  0  0  0  0  0  0  0  0  0  0
   -1.6467   -6.6654    5.3738 C   0  0  0  0  0  0  0  0  0  0  0  0
   -1.0261   -5.8341    6.2874 C   0  0  0  0  0  0  0  0  0  0  0  0
    0.0340   -5.0404    5.8908 C   0  0  0  0  0  0  0  0  0  0  0  0
    2.6782   -5.0583    3.4974 C   0  0  0  0  0  0  0  0  0  0  0  0
    2.5324   -5.4612    2.1831 C   0  0  0  0  0  0  0  0  0  0  0  0
    3.5029   -6.2460    1.5890 C   0  0  0  0  0  0  0  0  0  0  0  0
    4.6196   -6.6276    2.3091 C   0  0  0  0  0  0  0  0  0  0  0  0
    4.7659   -6.2239    3.6230 C   0  0  0  0  0  0  0  0  0  0  0  0
    3.7974   -5.4355    4.2158 C   0  0  0  0  0  0  0  0  0  0  0  0
    2.1737   -3.5420    5.2849 O   0  0  0  0  0  0  0  0  0  0  0  0
   -0.3710    1.0874    1.3689 C   0  0  0  0  0  0  0  0  0  0  0  0
    2.4044    2.8148    2.0910 H   0  0  0  0  0  0  0  0  0  0  0  0
    0.9364    3.3722    1.2528 H   0  0  0  0  0  0  0  0  0  0  0  0
    0.8406    2.8167    2.9412 H   0  0  0  0  0  0  0  0  0  0  0  0
    1.3717    1.8371   -0.4913 H   0  0  0  0  0  0  0  0  0  0  0  0
    2.8087    1.1880    0.3333 H   0  0  0  0  0  0  0  0  0  0  0  0
    0.3214   -0.4092   -0.4290 H   0  0  0  0  0  0  0  0  0  0  0  0
    1.8878   -0.4590   -1.2745 H   0  0  0  0  0  0  0  0  0  0  0  0
    1.6233   -2.3520    0.3424 H   0  0  0  0  0  0  0  0  0  0  0  0
    2.9903   -1.2908    0.7652 H   0  0  0  0  0  0  0  0  0  0  0  0
    2.6897    0.4528    2.5634 H   0  0  0  0  0  0  0  0  0  0  0  0
    1.1603    0.5313    3.4696 H   0  0  0  0  0  0  0  0  0  0  0  0
    0.1889   -5.9306    2.6409 H   0  0  0  0  0  0  0  0  0  0  0  0
   -1.6947   -7.3498    3.3491 H   0  0  0  0  0  0  0  0  0  0  0  0
   -2.4732   -7.2875    5.6843 H   0  0  0  0  0  0  0  0  0  0  0  0
   -1.3676   -5.8066    7.3115 H   0  0  0  0  0  0  0  0  0  0  0  0
    0.5213   -4.3936    6.6054 H   0  0  0  0  0  0  0  0  0  0  0  0
    1.6600   -5.1631    1.6206 H   0  0  0  0  0  0  0  0  0  0  0  0
    3.3886   -6.5614    0.5625 H   0  0  0  0  0  0  0  0  0  0  0  0
    5.3775   -7.2414    1.8451 H   0  0  0  0  0  0  0  0  0  0  0  0
    5.6381   -6.5223    4.1857 H   0  0  0  0  0  0  0  0  0  0  0  0
    3.9135   -5.1171    5.2413 H   0  0  0  0  0  0  0  0  0  0  0  0
    1.5472   -2.9726    5.7522 H   0  0  0  0  0  0  0  0  0  0  0  0
   -0.7673    1.7977    0.6433 H   0  0  0  0  0  0  0  0  0  0  0  0
   -0.5610    0.0711    1.0237 H   0  0  0  0  0  0  0  0  0  0  0  0
   -0.8586    1.2413    2.3316 H   0  0  0  0  0  0  0  0  0  0  0  0
  1  2  1  0  0  0  0
  1 27  1  0  0  0  0
  1 28  1  0  0  0  0
  1 29  1  0  0  0  0
  2  8  1  0  0  0  0
  2  3  1  0  0  0  0
  2 26  1  0  0  0  0
  3  4  1  0  0  0  0
  3 30  1  0  0  0  0
  3 31  1  0  0  0  0
  4  5  1  0  0  0  0
  4 32  1  0  0  0  0
  4 33  1  0  0  0  0
  5  6  1  0  0  0  0
  5 34  1  0  0  0  0
  5 35  1  0  0  0  0
  6  7  1  6  0  0  0
  6  8  1  0  0  0  0
  6  9  1  0  0  0  0
  8 36  1  0  0  0  0
  8 37  1  0  0  0  0
  9 10  1  0  0  0  0
 10 11  2  0  0  0  0
 10 12  1  0  0  0  0
 12 13  1  0  0  0  0
 12 19  1  0  0  0  0
 12 25  1  0  0  0  0
 13 18  2  0  0  0  0
 13 14  1  0  0  0  0
 14 15  2  0  0  0  0
 14 38  1  0  0  0  0
 15 16  1  0  0  0  0
 15 39  1  0  0  0  0
 16 17  2  0  0  0  0
 16 40  1  0  0  0  0
 17 18  1  0  0  0  0
 17 41  1  0  0  0  0
 18 42  1  0  0  0  0
 19 24  2  0  0  0  0
 19 20  1  0  0  0  0
 20 21  2  0  0  0  0
 20 43  1  0  0  0  0
 21 22  1  0  0  0  0
 21 44  1  0  0  0  0
 22 23  2  0  0  0  0
 22 45  1  0  0  0  0
 23 24  1  0  0  0  0
 23 46  1  0  0  0  0
 24 47  1  0  0  0  0
 25 48  1  0  0  0  0
 26 49  1  0  0  0  0
 26 50  1  0  0  0  0
 26 51  1  0  0  0  0
M  CHG  1   2   1
M  END
$$$$
