ZINC03951740
 OpenBabel08292219463D

 94 97  0  0  1  0  0  0  0  0999 V2000
   -0.1959    1.8362   -0.2414 C   0  0  0  0  0  0  0  0  0  0  0  0
   -0.0544    0.3359   -0.2526 C   0  0  0  0  0  0  0  0  0  0  0  0
   -0.0515   -0.3493   -1.4521 C   0  0  0  0  0  0  0  0  0  0  0  0
    0.0782   -1.7258   -1.4630 C   0  0  0  0  0  0  0  0  0  0  0  0
    0.2054   -2.4200   -0.2741 C   0  0  0  0  0  0  0  0  0  0  0  0
    0.2031   -1.7395    0.9281 C   0  0  0  0  0  0  0  0  0  0  0  0
    0.0788   -0.3578    0.9415 C   0  0  0  0  0  0  0  0  0  0  0  0
    0.0823    0.3145    2.1225 O   0  0  0  0  0  0  0  0  0  0  0  0
   -1.1816    0.5160    2.7581 C   0  0  0  0  0  0  0  0  0  0  0  0
   -0.9815    1.2737    4.0453 C   0  0  0  0  0  0  0  0  0  0  0  0
    0.1337    1.6082    4.3850 O   0  0  0  0  0  0  0  0  0  0  0  0
   -2.0418    1.5796    4.8190 N   0  0  0  0  0  0  0  0  0  0  0  0
   -1.8472    2.3161    6.0704 C   0  0  1  0  0  0  0  0  0  0  0  0
   -0.9052    2.0133    6.5276 H   0  0  0  0  0  0  0  0  0  0  0  0
   -1.8129    3.8176    5.7784 C   0  0  0  0  0  0  0  0  0  0  0  0
   -0.6055    4.1379    4.9354 C   0  0  0  0  0  0  0  0  0  0  0  0
    0.5953    4.4575    5.5411 C   0  0  0  0  0  0  0  0  0  0  0  0
    1.7028    4.7513    4.7678 C   0  0  0  0  0  0  0  0  0  0  0  0
    1.6097    4.7251    3.3888 C   0  0  0  0  0  0  0  0  0  0  0  0
    0.4091    4.4046    2.7831 C   0  0  0  0  0  0  0  0  0  0  0  0
   -0.6973    4.1066    3.5564 C   0  0  0  0  0  0  0  0  0  0  0  0
   -3.0007    2.0090    7.0276 C   0  0  2  0  0  0  0  0  0  0  0  0
   -2.8559    2.5570    7.9586 H   0  0  0  0  0  0  0  0  0  0  0  0
   -3.0350    0.5075    7.3196 C   0  0  0  0  0  0  0  0  0  0  0  0
   -4.0599    0.2253    8.4200 C   0  0  2  0  0  0  0  0  0  0  0  0
   -3.8672    0.8774    9.2719 H   0  0  0  0  0  0  0  0  0  0  0  0
   -3.9465   -1.2357    8.8600 C   0  0  0  0  0  0  0  0  0  0  0  0
   -4.8688   -1.4821   10.0261 C   0  0  0  0  0  0  0  0  0  0  0  0
   -4.4150   -1.2934   11.3181 C   0  0  0  0  0  0  0  0  0  0  0  0
   -5.2610   -1.5194   12.3877 C   0  0  0  0  0  0  0  0  0  0  0  0
   -6.5609   -1.9338   12.1653 C   0  0  0  0  0  0  0  0  0  0  0  0
   -7.0150   -2.1217   10.8732 C   0  0  0  0  0  0  0  0  0  0  0  0
   -6.1703   -1.8915    9.8034 C   0  0  0  0  0  0  0  0  0  0  0  0
   -5.4089    0.4776    7.9072 N   0  0  0  0  0  0  0  0  0  0  0  0
   -6.3494    1.0049    8.7157 C   0  0  0  0  0  0  0  0  0  0  0  0
   -6.0580    1.3479    9.8419 O   0  0  0  0  0  0  0  0  0  0  0  0
   -7.7633    1.1684    8.2204 C   0  0  2  0  0  0  0  0  0  0  0  0
   -8.1123    0.2252    7.8000 H   0  0  0  0  0  0  0  0  0  0  0  0
   -7.8038    2.2533    7.1424 C   0  0  0  0  0  0  0  0  0  0  0  0
   -7.0532    1.7671    5.9010 C   0  0  0  0  0  0  0  0  0  0  0  0
   -9.2584    2.5525    6.7743 C   0  0  0  0  0  0  0  0  0  0  0  0
   -8.6299    1.5560    9.3362 N   0  0  0  0  0  0  0  0  0  0  0  0
   -9.7107    0.6596    9.7497 C   0  0  0  0  0  0  0  0  0  0  0  0
   -9.9791    0.8523   11.2460 C   0  0  0  0  0  0  0  0  0  0  0  0
  -10.2738    2.3342   11.5019 C   0  0  0  0  0  0  0  0  0  0  0  0
   -9.1624    3.1397   10.9933 N   0  0  0  0  0  0  0  0  0  0  0  0
   -8.4133    2.7227    9.9618 C   0  0  0  0  0  0  0  0  0  0  0  0
   -7.5054    3.4328    9.5750 O   0  0  0  0  0  0  0  0  0  0  0  0
   -4.2356    2.4061    6.4282 O   0  0  0  0  0  0  0  0  0  0  0  0
    0.3417   -2.4968    2.2236 C   0  0  0  0  0  0  0  0  0  0  0  0
    0.7914    2.2947   -0.2964 H   0  0  0  0  0  0  0  0  0  0  0  0
   -0.7912    2.1514   -1.0984 H   0  0  0  0  0  0  0  0  0  0  0  0
   -0.6904    2.1476    0.6787 H   0  0  0  0  0  0  0  0  0  0  0  0
   -0.1511    0.1907   -2.3821 H   0  0  0  0  0  0  0  0  0  0  0  0
    0.0799   -2.2597   -2.4018 H   0  0  0  0  0  0  0  0  0  0  0  0
    0.3063   -3.4953   -0.2852 H   0  0  0  0  0  0  0  0  0  0  0  0
   -1.8334    1.0878    2.0975 H   0  0  0  0  0  0  0  0  0  0  0  0
   -1.6387   -0.4500    2.9724 H   0  0  0  0  0  0  0  0  0  0  0  0
   -2.9337    1.3121    4.5474 H   0  0  0  0  0  0  0  0  0  0  0  0
   -2.7172    4.1041    5.2415 H   0  0  0  0  0  0  0  0  0  0  0  0
   -1.7574    4.3691    6.7169 H   0  0  0  0  0  0  0  0  0  0  0  0
    0.6680    4.4781    6.6184 H   0  0  0  0  0  0  0  0  0  0  0  0
    2.6408    5.0017    5.2410 H   0  0  0  0  0  0  0  0  0  0  0  0
    2.4748    4.9553    2.7847 H   0  0  0  0  0  0  0  0  0  0  0  0
    0.3363    4.3844    1.7058 H   0  0  0  0  0  0  0  0  0  0  0  0
   -1.6343    3.8525    3.0832 H   0  0  0  0  0  0  0  0  0  0  0  0
   -3.3152   -0.0322    6.4150 H   0  0  0  0  0  0  0  0  0  0  0  0
   -2.0492    0.1787    7.6483 H   0  0  0  0  0  0  0  0  0  0  0  0
   -4.2256   -1.8872    8.0320 H   0  0  0  0  0  0  0  0  0  0  0  0
   -2.9195   -1.4467    9.1581 H   0  0  0  0  0  0  0  0  0  0  0  0
   -3.3995   -0.9696   11.4919 H   0  0  0  0  0  0  0  0  0  0  0  0
   -4.9063   -1.3727   13.3972 H   0  0  0  0  0  0  0  0  0  0  0  0
   -7.2217   -2.1111   13.0010 H   0  0  0  0  0  0  0  0  0  0  0  0
   -8.0304   -2.4457   10.6994 H   0  0  0  0  0  0  0  0  0  0  0  0
   -6.5261   -2.0346    8.7938 H   0  0  0  0  0  0  0  0  0  0  0  0
   -5.6251    0.2651    6.9858 H   0  0  0  0  0  0  0  0  0  0  0  0
   -7.3311    3.1596    7.5211 H   0  0  0  0  0  0  0  0  0  0  0  0
   -7.5454    0.8796    5.5033 H   0  0  0  0  0  0  0  0  0  0  0  0
   -7.0539    2.5525    5.1452 H   0  0  0  0  0  0  0  0  0  0  0  0
   -6.0256    1.5228    6.1702 H   0  0  0  0  0  0  0  0  0  0  0  0
   -9.7693    2.9851    7.6345 H   0  0  0  0  0  0  0  0  0  0  0  0
   -9.2853    3.2574    5.9434 H   0  0  0  0  0  0  0  0  0  0  0  0
   -9.7569    1.6280    6.4828 H   0  0  0  0  0  0  0  0  0  0  0  0
  -10.6133    0.8925    9.1847 H   0  0  0  0  0  0  0  0  0  0  0  0
   -9.4188   -0.3737    9.5620 H   0  0  0  0  0  0  0  0  0  0  0  0
  -10.8383    0.2514   11.5442 H   0  0  0  0  0  0  0  0  0  0  0  0
   -9.1015    0.5497   11.8173 H   0  0  0  0  0  0  0  0  0  0  0  0
  -11.1931    2.6166   10.9888 H   0  0  0  0  0  0  0  0  0  0  0  0
  -10.3864    2.5036   12.5727 H   0  0  0  0  0  0  0  0  0  0  0  0
   -8.9611    3.9905   11.4134 H   0  0  0  0  0  0  0  0  0  0  0  0
   -4.4526    1.9243    5.6183 H   0  0  0  0  0  0  0  0  0  0  0  0
    1.3968   -2.5827    2.4832 H   0  0  0  0  0  0  0  0  0  0  0  0
   -0.1848   -1.9628    3.0147 H   0  0  0  0  0  0  0  0  0  0  0  0
   -0.0868   -3.4926    2.1100 H   0  0  0  0  0  0  0  0  0  0  0  0
  1  2  1  0  0  0  0
  1 51  1  0  0  0  0
  1 52  1  0  0  0  0
  1 53  1  0  0  0  0
  2  7  2  0  0  0  0
  2  3  1  0  0  0  0
  3  4  2  0  0  0  0
  3 54  1  0  0  0  0
  4  5  1  0  0  0  0
  4 55  1  0  0  0  0
  5  6  2  0  0  0  0
  5 56  1  0  0  0  0
  6  7  1  0  0  0  0
  6 50  1  0  0  0  0
  7  8  1  0  0  0  0
  8  9  1  0  0  0  0
  9 10  1  0  0  0  0
  9 57  1  0  0  0  0
  9 58  1  0  0  0  0
 10 11  2  0  0  0  0
 10 12  1  0  0  0  0
 12 13  1  0  0  0  0
 12 59  1  0  0  0  0
 13 14  1  1  0  0  0
 13 15  1  0  0  0  0
 13 22  1  0  0  0  0
 15 16  1  0  0  0  0
 15 60  1  0  0  0  0
 15 61  1  0  0  0  0
 16 21  2  0  0  0  0
 16 17  1  0  0  0  0
 17 18  2  0  0  0  0
 17 62  1  0  0  0  0
 18 19  1  0  0  0  0
 18 63  1  0  0  0  0
 19 20  2  0  0  0  0
 19 64  1  0  0  0  0
 20 21  1  0  0  0  0
 20 65  1  0  0  0  0
 21 66  1  0  0  0  0
 22 23  1  1  0  0  0
 22 24  1  0  0  0  0
 22 49  1  0  0  0  0
 24 25  1  0  0  0  0
 24 67  1  0  0  0  0
 24 68  1  0  0  0  0
 25 26  1  1  0  0  0
 25 27  1  0  0  0  0
 25 34  1  0  0  0  0
 27 28  1  0  0  0  0
 27 69  1  0  0  0  0
 27 70  1  0  0  0  0
 28 33  2  0  0  0  0
 28 29  1  0  0  0  0
 29 30  2  0  0  0  0
 29 71  1  0  0  0  0
 30 31  1  0  0  0  0
 30 72  1  0  0  0  0
 31 32  2  0  0  0  0
 31 73  1  0  0  0  0
 32 33  1  0  0  0  0
 32 74  1  0  0  0  0
 33 75  1  0  0  0  0
 34 35  1  0  0  0  0
 34 76  1  0  0  0  0
 35 36  2  0  0  0  0
 35 37  1  0  0  0  0
 37 38  1  6  0  0  0
 37 39  1  0  0  0  0
 37 42  1  0  0  0  0
 39 40  1  0  0  0  0
 39 41  1  0  0  0  0
 39 77  1  0  0  0  0
 40 78  1  0  0  0  0
 40 79  1  0  0  0  0
 40 80  1  0  0  0  0
 41 81  1  0  0  0  0
 41 82  1  0  0  0  0
 41 83  1  0  0  0  0
 42 47  1  0  0  0  0
 42 43  1  0  0  0  0
 43 44  1  0  0  0  0
 43 84  1  0  0  0  0
 43 85  1  0  0  0  0
 44 45  1  0  0  0  0
 44 86  1  0  0  0  0
 44 87  1  0  0  0  0
 45 46  1  0  0  0  0
 45 88  1  0  0  0  0
 45 89  1  0  0  0  0
 46 47  1  0  0  0  0
 46 90  1  0  0  0  0
 47 48  2  0  0  0  0
 49 91  1  0  0  0  0
 50 92  1  0  0  0  0
 50 93  1  0  0  0  0
 50 94  1  0  0  0  0
M  END
$$$$
